version 2
run General-0-20170415-20:28:16-3312
attr configname General
attr datetime 20170415-20:28:16
attr experiment General
attr inifile omnetpp.ini
attr iterationvars ""
attr iterationvars2 $repetition=0
attr measurement ""
attr network DVCastScenario
attr processid 3312
attr repetition 0
attr replication #0
attr resultdir results
attr runnumber 0
attr seedset 0
param **.coreDebug false
param **.debug false
param *.**.nic.mac1609_4.bitrate 18Mbps
param *.**.nic.mac1609_4.txPower 20mW
param *.**.nic.mac1609_4.useServiceChannel false
param *.**.nic.phy80211p.analogueModels "xmldoc(\"config.xml\")"
param *.**.nic.phy80211p.decider "xmldoc(\"config.xml\")"
param *.**.nic.phy80211p.sensitivity -89dBm
param *.**.nic.phy80211p.thermalNoise -110dBm
param *.**.nic.phy80211p.usePropagationDelay true
param *.**.nic.phy80211p.useThermalNoise true
param *.annotations.draw false
param *.connectionManager.alpha 2.0
param *.connectionManager.carrierFrequency "5.890e9 Hz"
param *.connectionManager.pMax 20mW
param *.connectionManager.sat -89dBm
param *.connectionManager.sendDirect true
param *.manager.autoShutdown true
param *.manager.host "\"localhost\""
param *.manager.launchConfig "xmldoc(\"uah.launchd.xml\")"
param *.manager.margin 25
param *.manager.moduleDisplayString "\"\""
param *.manager.moduleName "\"node\""
param *.manager.moduleType "\"org.car2x.veins.nodes.Car\""
param *.manager.port 9999
param *.manager.updateInterval 0.1s
param *.node[*0].veinsmobility.accidentCount 1
param *.node[*0].veinsmobility.accidentDuration 30s
param *.node[*0].veinsmobility.accidentStart 75s
param *.node[*].appl.beaconInterval 1s
param *.node[*].appl.beaconPriority 3
param *.node[*].appl.dataOnSch false
param *.node[*].appl.dataPriority 2
param *.node[*].appl.debug false
param *.node[*].appl.headerLength "256 bit"
param *.node[*].appl.maxOffset 0.005s
param *.node[*].appl.sendBeacons false
param *.node[*].appl.sendData true
param *.node[*].applType "\"DVCastLayer\""
param *.node[*].mobilityType "\"TraCIMobility\""
param *.node[*].mobilityType.debug true
param *.node[*].veinsmobility.x 0
param *.node[*].veinsmobility.y 0
param *.node[*].veinsmobility.z 1.895
param *.node[*].veinsmobilityType "\"org.car2x.veins.modules.mobility.traci.TraCIMobility\""
param *.node[*].veinsmobilityType.debug true
param *.playgroundSizeX 12500m
param *.playgroundSizeY 12500m
param *.playgroundSizeZ 2500m
param *.world.use2D false
param *.world.useTorus false

vector 2  DVCastScenario.node[0].veinsmobility  posx  ETV
vector 3  DVCastScenario.node[0].veinsmobility  posy  ETV
vector 4  DVCastScenario.node[0].veinsmobility  speed  ETV
vector 5  DVCastScenario.node[0].veinsmobility  acceleration  ETV
vector 6  DVCastScenario.node[0].veinsmobility  co2emission  ETV
vector 9  DVCastScenario.node[1].veinsmobility  posx  ETV
vector 10  DVCastScenario.node[1].veinsmobility  posy  ETV
vector 11  DVCastScenario.node[1].veinsmobility  speed  ETV
vector 12  DVCastScenario.node[1].veinsmobility  acceleration  ETV
vector 13  DVCastScenario.node[1].veinsmobility  co2emission  ETV
vector 16  DVCastScenario.node[2].veinsmobility  posx  ETV
vector 17  DVCastScenario.node[2].veinsmobility  posy  ETV
vector 18  DVCastScenario.node[2].veinsmobility  speed  ETV
vector 19  DVCastScenario.node[2].veinsmobility  acceleration  ETV
vector 20  DVCastScenario.node[2].veinsmobility  co2emission  ETV
vector 23  DVCastScenario.node[3].veinsmobility  posx  ETV
vector 24  DVCastScenario.node[3].veinsmobility  posy  ETV
vector 25  DVCastScenario.node[3].veinsmobility  speed  ETV
vector 26  DVCastScenario.node[3].veinsmobility  acceleration  ETV
vector 27  DVCastScenario.node[3].veinsmobility  co2emission  ETV
vector 30  DVCastScenario.node[4].veinsmobility  posx  ETV
vector 31  DVCastScenario.node[4].veinsmobility  posy  ETV
vector 32  DVCastScenario.node[4].veinsmobility  speed  ETV
vector 33  DVCastScenario.node[4].veinsmobility  acceleration  ETV
vector 34  DVCastScenario.node[4].veinsmobility  co2emission  ETV
vector 37  DVCastScenario.node[5].veinsmobility  posx  ETV
vector 38  DVCastScenario.node[5].veinsmobility  posy  ETV
vector 39  DVCastScenario.node[5].veinsmobility  speed  ETV
vector 40  DVCastScenario.node[5].veinsmobility  acceleration  ETV
vector 41  DVCastScenario.node[5].veinsmobility  co2emission  ETV
vector 44  DVCastScenario.node[6].veinsmobility  posx  ETV
vector 45  DVCastScenario.node[6].veinsmobility  posy  ETV
vector 46  DVCastScenario.node[6].veinsmobility  speed  ETV
vector 47  DVCastScenario.node[6].veinsmobility  acceleration  ETV
vector 48  DVCastScenario.node[6].veinsmobility  co2emission  ETV
vector 51  DVCastScenario.node[7].veinsmobility  posx  ETV
vector 52  DVCastScenario.node[7].veinsmobility  posy  ETV
vector 53  DVCastScenario.node[7].veinsmobility  speed  ETV
vector 54  DVCastScenario.node[7].veinsmobility  acceleration  ETV
vector 55  DVCastScenario.node[7].veinsmobility  co2emission  ETV
vector 58  DVCastScenario.node[8].veinsmobility  posx  ETV
vector 59  DVCastScenario.node[8].veinsmobility  posy  ETV
vector 60  DVCastScenario.node[8].veinsmobility  speed  ETV
vector 61  DVCastScenario.node[8].veinsmobility  acceleration  ETV
vector 62  DVCastScenario.node[8].veinsmobility  co2emission  ETV
vector 65  DVCastScenario.node[9].veinsmobility  posx  ETV
vector 66  DVCastScenario.node[9].veinsmobility  posy  ETV
vector 67  DVCastScenario.node[9].veinsmobility  speed  ETV
vector 68  DVCastScenario.node[9].veinsmobility  acceleration  ETV
vector 69  DVCastScenario.node[9].veinsmobility  co2emission  ETV
vector 72  DVCastScenario.node[10].veinsmobility  posx  ETV
vector 73  DVCastScenario.node[10].veinsmobility  posy  ETV
vector 74  DVCastScenario.node[10].veinsmobility  speed  ETV
vector 75  DVCastScenario.node[10].veinsmobility  acceleration  ETV
vector 76  DVCastScenario.node[10].veinsmobility  co2emission  ETV
vector 79  DVCastScenario.node[11].veinsmobility  posx  ETV
vector 80  DVCastScenario.node[11].veinsmobility  posy  ETV
vector 81  DVCastScenario.node[11].veinsmobility  speed  ETV
vector 82  DVCastScenario.node[11].veinsmobility  acceleration  ETV
vector 83  DVCastScenario.node[11].veinsmobility  co2emission  ETV
vector 86  DVCastScenario.node[12].veinsmobility  posx  ETV
vector 87  DVCastScenario.node[12].veinsmobility  posy  ETV
vector 88  DVCastScenario.node[12].veinsmobility  speed  ETV
vector 89  DVCastScenario.node[12].veinsmobility  acceleration  ETV
vector 90  DVCastScenario.node[12].veinsmobility  co2emission  ETV
vector 93  DVCastScenario.node[13].veinsmobility  posx  ETV
vector 94  DVCastScenario.node[13].veinsmobility  posy  ETV
vector 95  DVCastScenario.node[13].veinsmobility  speed  ETV
vector 96  DVCastScenario.node[13].veinsmobility  acceleration  ETV
vector 97  DVCastScenario.node[13].veinsmobility  co2emission  ETV
vector 100  DVCastScenario.node[14].veinsmobility  posx  ETV
vector 101  DVCastScenario.node[14].veinsmobility  posy  ETV
vector 102  DVCastScenario.node[14].veinsmobility  speed  ETV
vector 103  DVCastScenario.node[14].veinsmobility  acceleration  ETV
vector 104  DVCastScenario.node[14].veinsmobility  co2emission  ETV
vector 107  DVCastScenario.node[15].veinsmobility  posx  ETV
vector 108  DVCastScenario.node[15].veinsmobility  posy  ETV
vector 109  DVCastScenario.node[15].veinsmobility  speed  ETV
vector 110  DVCastScenario.node[15].veinsmobility  acceleration  ETV
vector 111  DVCastScenario.node[15].veinsmobility  co2emission  ETV
vector 114  DVCastScenario.node[16].veinsmobility  posx  ETV
vector 115  DVCastScenario.node[16].veinsmobility  posy  ETV
vector 116  DVCastScenario.node[16].veinsmobility  speed  ETV
vector 117  DVCastScenario.node[16].veinsmobility  acceleration  ETV
vector 118  DVCastScenario.node[16].veinsmobility  co2emission  ETV
55	166	8.3	1.4322324332167
55	167	8.4	1.5848146051446
55	168	8.5	1.7311677924583
55	169	8.6	1.9475075734934
55	170	8.7	1.890955267136
55	171	8.8	2.1907601332617
55	172	8.9	1.9530297438602
55	173	9	2.2422424944212
55	174	9.1	2.4891249907402
55	183	9.2	2.5682987670743
55	184	9.3	2.4537223335336
55	185	9.4	3.0533097437895
55	186	9.5	2.6220311326332
55	187	9.6	2.8907624968758
55	188	9.7	2.995773042105
55	189	9.8	3.2727776495947
55	190	9.9	3.8257908590443
55	191	10	2.6790308108025
55	192	10.1	2.8321315703029
55	213	10.2	3.8813545779175
55	214	10.3	3.4342693688961
55	215	10.4	3.3183294093905
55	216	10.5	3.7721458551293
55	217	10.6	3.1678017186055
55	218	10.7	4.2992214041557
55	219	10.8	3.7370020151127
55	220	10.9	4.1658730030846
55	221	11	4.7689056644772
55	222	11.1	3.6127880963103
55	223	11.2	4.7585592272302
55	224	11.3	5.6248304829749
55	225	11.4	4.9127844178178
55	226	11.5	5.161644880059
55	227	11.6	5.3856503419015
55	228	11.7	6.2216861941169
55	229	11.8	4.7316551155128
55	230	11.9	5.5756353572303
55	231	12	5.4106218279073
55	232	12.1	5.6632770102393
55	259	12.2	0.973
55	260	12.3	0.973
55	261	12.4	0.973
55	262	12.5	0.973
55	263	12.6	0.973
55	264	12.7	0.973
55	265	12.8	0.973
55	266	12.9	0.973
55	267	13	0.973
55	268	13.1	0.973
55	269	13.2	0.973
55	270	13.3	0.973
55	271	13.4	0.973
55	272	13.5	0.973
55	273	13.6	0.973
55	274	13.7	0.973
55	275	13.8	0.973
55	276	13.9	0.973
55	277	14	0.973
55	278	14.1	0.973
55	299	14.2	3.4974635621448
55	300	14.3	3.6738885400076
55	301	14.4	3.8504555920124
55	302	14.5	4.0271744600662
55	303	14.6	4.2040548860763
55	304	14.7	4.3811066119499
55	325	14.8	4.558339379594
55	326	14.9	4.735762930916
55	327	15	4.9133870078228
55	328	15.1	5.0420735628035
55	337	15.2	3.5647978266287
55	338	15.3	4.579350559826
55	339	15.4	3.6786349143516
55	340	15.5	5.5592116274665
55	341	15.6	4.4061310420778
55	342	15.7	4.2652396646935
55	343	15.8	5.9867303441301
55	344	15.9	4.8944545456203
55	345	16	4.7951364567955
55	346	16.1	5.4965648999016
55	373	16.2	6.5105598508206
55	374	16.3	5.5853524638325
55	375	16.4	6.2413418157711
55	376	16.5	5.1932511543859
55	377	16.6	4.4374173533528
55	378	16.7	5.4557673870001
55	379	16.8	6.3649405385164
55	380	16.9	6.2078791249274
55	381	17	6.8637421073262
55	382	17.1	7.2961318102055
55	415	17.2	6.1030750431693
55	416	17.3	7.8388935467733
55	417	17.4	6.7378009973078
55	418	17.5	7.085999548569
55	419	17.6	7.3078857183207
55	434	17.7	7.3250101216639
55	435	17.8	6.5045905413369
55	436	17.9	7.1096901069494
55	437	18	8.0247305775881
55	438	18.1	6.0794312560553
55	483	18.2	7.40184459745
55	484	18.3	6.145652869395
55	485	18.4	8.6459265408368
55	530	18.5	5.9418006543279
55	531	18.6	7.8701885974923
55	532	18.7	10.077416526834
55	533	18.8	6.2936430626995
55	534	18.9	9.6589542328253
55	535	19	8.6870823749252
55	536	19.1	10.215655921014
55	581	19.2	3.2388739923341
55	582	19.3	0.973
55	609	19.4	3.8728362066519
55	610	19.5	2.2354833478224
55	611	19.6	1.8034020040285
55	612	19.7	2.3899619096179
55	613	19.8	0.973
55	614	19.9	3.0888734557289
55	615	20	0.973
55	616	20.1	2.6770071251412
55	617	20.2	1.1780015558137
55	618	20.3	2.3665556617622
55	627	20.4	2.5868631661856
55	628	20.5	1.9234746936663
55	629	20.6	0.973
55	630	20.7	2.1223170125356
55	631	20.8	1.2710141058993
55	632	20.9	4.1963622219913
55	633	21	0.973
55	634	21.1	1.3794262484936
55	635	21.2	3.5909748788901
55	636	21.3	3.3018021759047
55	637	21.4	0.973
55	638	21.5	3.593442514478
55	639	21.6	0.973
55	640	21.7	1.8709947120799
55	641	21.8	2.7497565221084
55	642	21.9	3.293358888765
55	643	22	2.1958561219915
55	644	22.1	0.973
55	645	22.2	1.2212371980757
55	646	22.3	2.9119312574405
55	647	22.4	2.2961822704379
55	648	22.5	0.973
55	649	22.6	2.4100711990058
55	650	22.7	5.432795308942
55	651	22.8	1.7503782787934
55	652	22.9	0.973
55	653	23	2.5287073372169
55	654	23.1	0.973
55	655	23.2	3.8964811848748
55	656	23.3	2.4115678246844
55	707	23.4	0.973
55	708	23.5	4.6285420611923
55	709	23.6	1.4517622923872
55	710	23.7	2.9228182570406
55	711	23.8	0.973
55	712	23.9	2.4039471328655
55	713	24	3.3927793069966
55	714	24.1	1.3001108055945
55	715	24.2	2.4701912825834
55	716	24.3	3.8462045552487
55	717	24.4	2.2096555907165
55	718	24.5	1.2375924050001
55	719	24.6	1.2694407987448
55	720	24.7	0.973
55	721	24.8	2.6988303011473
55	760	24.9	3.0448847886836
55	761	25	1.7917829215708
55	762	25.1	0.973
55	771	25.2	5.60560582501
55	772	25.3	1.7832261191576
55	773	25.4	0.973
55	774	25.5	5.2525825062366
55	775	25.6	0.973
55	776	25.7	4.2793013813297
55	777	25.8	0.973
55	778	25.9	1.97922722297
55	779	26	2.1003514887442
55	780	26.1	2.9952795796915
55	781	26.2	2.9482978990337
55	782	26.3	1.5356079570009
55	783	26.4	3.2479103089127
55	784	26.5	2.0983148693821
55	785	26.6	0.973
55	794	26.7	3.1770992765834
55	795	26.8	2.689271334155
55	816	26.9	1.3990848510508
55	817	27	0.973
55	818	27.1	0.973
55	819	27.2	0.973
55	820	27.3	0.973
55	821	27.4	0.973
55	822	27.5	0.973
55	823	27.6	0.973
55	824	27.7	0.973
55	825	27.8	0.973
55	858	27.9	0.973
55	909	28	0.973
55	924	28.1	0.973
55	925	28.2	0.973
55	926	28.3	0.973
55	927	28.4	0.973
55	928	28.5	0.973
55	929	28.6	0.973
55	930	28.7	0.973
55	931	28.8	0.973
55	932	28.9	0.973
55	933	29	0.973
55	934	29.1	0.973
55	935	29.2	0.973
55	936	29.3	0.973
55	993	29.4	0.973
55	994	29.5	0.973
55	995	29.6	0.973
55	996	29.7	0.973
55	1011	29.8	0.973
55	1012	29.9	0.973
55	1013	30	0.973
55	1014	30.1	0.973
55	1015	30.2	0.973
55	1016	30.3	0.973
55	1017	30.4	0.973
55	1018	30.5	0.973
55	1019	30.6	0.973
55	1020	30.7	3.4975840121359
55	1021	30.8	3.6740090837092
55	1022	30.9	3.850576236078
55	1023	31	4.0272952111496
55	1024	31.1	3.3184289191235
55	1039	31.2	4.3288218266981
55	1040	31.3	4.5060001366318
55	1041	31.4	4.6833663543926
55	1042	31.5	4.8609302218879
55	1043	31.6	4.4307561327629
55	1044	31.7	4.957510327578
55	1045	31.8	4.3030982513717
55	1046	31.9	3.5564856472953
55	1047	32	5.5127538592787
55	1048	32.1	4.6788735003246
55	1049	32.2	4.851369950035
55	1050	32.3	4.2166499912154
55	1051	32.4	6.0002636355641
55	1052	32.5	4.6027792078098
55	1091	32.6	5.2795951317873
55	1092	32.7	6.2317758196672
55	1093	32.8	6.4024205610596
55	1114	32.9	6.0599831174278
55	1115	33	6.8489721148975
55	1148	33.1	6.624222050076
55	1149	33.2	5.5787439327979
55	1150	33.3	7.0539143546993
55	1151	33.4	6.7544797029027
55	1152	33.5	6.3092437716203
55	1167	33.6	6.8931775317416
55	1168	33.7	5.9497379250807
55	1177	33.8	6.9336771689185
55	1178	33.9	6.6490830463792
55	1217	34	7.6585682767172
55	1218	34.1	5.9860159238585
55	1219	34.2	8.5227669759517
55	1276	34.3	8.4996075238306
55	1291	34.4	6.8652973089726
55	1292	34.5	7.4956814589137
55	1293	34.6	7.6984004453055
55	1294	34.7	7.4782829216311
55	1295	34.8	7.9831126493093
55	1296	34.9	7.8120187471944
55	1297	35	6.6568067752391
55	1298	35.1	10.018899624074
55	1299	35.2	8.9778079571442
55	1300	35.3	7.5885884321211
55	1301	35.4	10.52566729662
55	1302	35.5	7.0202625307243
55	1303	35.6	1.2187815646005
55	1304	35.7	1.2335719107919
55	1305	35.8	1.2627435828537
55	1306	35.9	5.6349809752342
55	1307	36	1.5611452006684
55	1308	36.1	0.973
55	1309	36.2	5.2812499358777
55	1310	36.3	0.973
55	1311	36.4	2.983195977992
55	1312	36.5	0.973
55	1313	36.6	3.4974837784057
55	1314	36.7	0.973
55	1315	36.8	2.0118270289941
55	1316	36.9	4.0581167201679
55	1317	37	0.973
55	1318	37.1	4.2314080311692
55	1319	37.2	1.2733272889908
55	1320	37.3	2.823639407393
55	1321	37.4	0.973
55	1322	37.5	1.524053854702
55	1323	37.6	3.9567100386437
55	1324	37.7	1.2430576388723
55	1325	37.8	0.973
55	1326	37.9	3.8438660685714
55	1327	38	1.2149555935997
55	1328	38.1	0.973
55	1329	38.2	1.8238217083515
55	1330	38.3	5.1495182932115
55	1331	38.4	2.2414923006601
55	1332	38.5	0.973
55	1333	38.6	2.4354586577792
55	1366	38.7	2.9215780951413
54	166	8.3	2.4693884058534
54	167	8.4	2.4434967458012
54	168	8.5	2.412386255906
54	169	8.6	2.589637225778
54	170	8.7	2.0354790821962
54	171	8.8	2.4466310824211
54	172	8.9	1.6777830527908
54	173	9	2.069627123972
54	174	9.1	2.2888606205627
54	183	9.2	2.2011426491247
54	184	9.3	1.8595544085838
54	185	9.4	2.5245620887959
54	186	9.5	1.797044705064
54	187	9.6	2.0101941086352
54	188	9.7	2.0071809895802
54	189	9.8	2.1839777117828
54	190	9.9	2.5999280445278
54	191	10	1.3613708443008
54	192	10.1	1.4556131141726
54	213	10.2	2.3302888976643
54	214	10.3	1.8371803510701
54	215	10.4	1.6680824161274
54	216	10.5	1.9655268300092
54	217	10.6	1.4251643386204
54	218	10.7	2.220208210079
54	219	10.8	1.729108495079
54	220	10.9	1.9686841284856
54	221	11	2.2987878868356
54	222	11.1	1.463425639132
54	223	11.2	2.1485964347376
54	224	11.3	2.5947374627693
54	225	11.4	2.0785279560834
54	226	11.5	2.1533128506737
54	227	11.6	2.2076198634226
54	228	11.7	2.5818670823704
54	229	11.8	1.7193646281958
54	230	11.9	2.10725609574
54	231	12	1.9656850571046
54	232	12.1	2.0365293308161
54	259	12.2	-1.6531625673636
54	260	12.3	-3.0761483309368
54	261	12.4	-3.2120623331472
54	262	12.5	-3.1062323652841
54	263	12.6	-2.8514909751443
54	264	12.7	-3.1138257258611
54	265	12.8	-2.7286253243568
54	266	12.9	-2.5330954484075
54	267	13	-1.9797027356942
54	268	13.1	-3.0910820638676
54	269	13.2	-2.6264583837476
54	270	13.3	-1.7518109863014
54	271	13.4	-3.5285041747696
54	272	13.5	-1.9024765494064
54	273	13.6	-2.4139329909004
54	274	13.7	-1.8141217874717
54	275	13.8	-2.1295206291666
54	276	13.9	-2.2455688474546
54	277	14	-2.851867977953
54	278	14.1	-2.1452086241705
54	299	14.2	2.6
54	300	14.3	2.6
54	301	14.4	2.6
54	302	14.5	2.6
54	303	14.6	2.6
54	304	14.7	2.6
54	325	14.8	2.6
54	326	14.9	2.6
54	327	15	2.6
54	328	15.1	2.5668534402736
54	337	15.2	1.4789858877193
54	338	15.3	2.0971247036243
54	339	15.4	1.4569948070683
54	340	15.5	2.5681143796537
54	341	15.6	1.7910996202612
54	342	15.7	1.658607797185
54	343	15.8	2.578066821699
54	344	15.9	1.8948058919748
54	345	16	1.7897169251926
54	346	16.1	2.106837102701
54	373	16.2	2.5531560311094
54	374	16.3	2.0196872609668
54	375	16.4	2.2783816214651
54	376	16.5	1.7256430013338
54	377	16.6	1.3387116551166
54	378	16.7	1.7770193876931
54	379	16.8	2.1391421225853
54	380	16.9	2.0174143206328
54	381	17	2.246101826313
54	382	17.1	2.3667669117916
54	415	17.2	1.8249255463947
54	416	17.3	2.4735646012938
54	417	17.4	1.9848529339535
54	418	17.5	2.0750694330549
54	419	17.6	2.112821486243
54	434	17.7	2.0734537062934
54	435	17.8	1.7346189513104
54	436	17.9	1.918560988293
54	437	18	2.2004110452021
54	438	18.1	1.4868409618968
54	483	18.2	1.9132956806337
54	484	18.3	1.4581157591427
54	485	18.4	2.2608241496608
54	530	18.5	1.3380491270916
54	531	18.6	1.9400737909134
54	532	18.7	2.5982016386464
54	533	18.8	1.371465191734
54	534	18.9	2.3841378326295
54	535	19	2.0450243328232
54	536	19.1	2.4600969824241
54	581	19.2	0.36362117490551
54	582	19.3	-0.38357417886145
54	609	19.4	0.55225082857069
54	610	19.5	0.062389430659824
54	611	19.6	-0.066594341886237
54	612	19.7	0.10840515401215
54	613	19.8	-0.50640971274115
54	614	19.9	0.31825747943948
54	615	20	-0.38992214838508
54	616	20.1	0.19587913861033
54	617	20.2	-0.25298671470955
54	618	20.3	0.10341932123993
54	627	20.4	0.16878602125216
54	628	20.5	-0.02988396922591
54	629	20.6	-0.31685759245885
54	630	20.7	0.030634879157887
54	631	20.8	-0.22468639605213
54	632	20.9	0.65015378284734
54	633	21	-0.62230812108609
54	634	21.1	-0.19180854458828
54	635	21.2	0.47112649700138
54	636	21.3	0.38212404157967
54	637	21.4	-0.51167749965098
54	638	21.5	0.46967714063356
54	639	21.6	-0.89791561672463
54	640	21.7	-0.043425122043121
54	641	21.8	0.22042975744698
54	642	21.9	0.38180278143846
54	643	22	0.05225405860692
54	644	22.1	-0.36051488446537
54	645	22.2	-0.23934708531016
54	646	22.3	0.26872130506673
54	647	22.4	0.083252954762418
54	648	22.5	-0.43444355621467
54	649	22.6	0.11870980521199
54	650	22.7	1.0185860015219
54	651	22.8	-0.082299154903733
54	652	22.9	-0.33803750597871
54	653	23	0.15133909932336
54	654	23.1	-0.59054287106264
54	655	23.2	0.56132120224648
54	656	23.3	0.11590898700524
54	707	23.4	-0.92960139240605
54	708	23.5	0.78097143380438
54	709	23.6	-0.1708862352185
54	710	23.7	0.26923044947909
54	711	23.8	-0.76399592391681
54	712	23.9	0.11632796006742
54	713	24	0.41140901497565
54	714	24.1	-0.2161267128773
54	715	24.2	0.13493483255152
54	716	24.3	0.54421714604832
54	717	24.4	0.054661422991202
54	718	24.5	-0.23557941175532
54	719	24.6	-0.22572602713479
54	720	24.7	-0.31338433073834
54	721	24.8	0.2034480317263
54	760	24.9	0.30570770902559
54	761	25	-0.069394619204104
54	762	25.1	-0.78095330751967
54	771	25.2	1.0702242701082
54	772	25.3	-0.072504056734033
54	773	25.4	-0.87085597182158
54	774	25.5	0.96445779839996
54	775	25.6	-0.58596099298448
54	776	25.7	0.67280122200026
54	777	25.8	-0.97735316290054
54	778	25.9	-0.011486540292385
54	779	26	0.02488151751459
54	780	26.1	0.29261973844841
54	781	26.2	0.27711642878129
54	782	26.3	-0.14586889254861
54	783	26.4	0.36563879190945
54	784	26.5	0.021669941279097
54	785	26.6	-0.81636545427608
54	794	26.7	0.34693379092495
54	795	26.8	0.19963310319
54	816	26.9	-0.18670075212139
54	817	27	-0.81590293864096
54	818	27.1	-3.9522233394643
54	819	27.2	-2.7487425574958
54	820	27.3	-4.4838806276743
54	821	27.4	-3.0533773971715
54	822	27.5	-2.7020805584778
54	823	27.6	-3.8753078726665
54	824	27.7	-3.7765612432194
54	825	27.8	-3.002003402254
54	858	27.9	-3.1982360585317
54	909	28	-2.866545286421
54	924	28.1	-3.1606838553067
54	925	28.2	-3.2829256569944
54	926	28.3	-3.2630739498941
54	927	28.4	-3.3750814844567
54	928	28.5	-2.0939681297642
54	929	28.6	-3.3618271612704
54	930	28.7	-3.978420554193
54	931	28.8	-2.2544990438856
54	932	28.9	-2.7874407574833
54	933	29	-2.9033519056348
54	934	29.1	-3.3087898298847
54	935	29.2	-2.0275406680066
54	936	29.3	-3.3183023933544
54	993	29.4	-2.2247898599649
54	994	29.5	-2.9577053293317
54	995	29.6	-3.1509849921335
54	996	29.7	-1.7375850800315
54	1011	29.8	-3.2538485520841
54	1012	29.9	-2.7903033059575
54	1013	30	-1.5418870286341
54	1014	30.1	-3.3995023117535
54	1015	30.2	-1.4712452188317
54	1016	30.3	-3.0778827566434
54	1017	30.4	-1.1507514156596
54	1018	30.5	-2.4833610390239
54	1019	30.6	-2.7212029682417
54	1020	30.7	2.6
54	1021	30.8	2.6
54	1022	30.9	2.6
54	1023	31	2.6
54	1024	31.1	1.8306936612586
54	1039	31.2	2.6
54	1040	31.3	2.6
54	1041	31.4	2.6
54	1042	31.5	2.6
54	1043	31.6	2.1821514941985
54	1044	31.7	2.447715544072
54	1045	31.8	1.9253966168035
54	1046	31.9	1.3883262547431
54	1047	32	2.5574407423614
54	1048	32.1	1.9658099158667
54	1049	32.2	2.0045727471821
54	1050	32.3	1.5855190002359
54	1051	32.4	2.5235486628255
54	1052	32.5	1.6943182630697
54	1091	32.6	2.0053946945583
54	1092	32.7	2.4297847633017
54	1093	32.8	2.4357222178485
54	1114	32.9	2.1974759830395
54	1115	33	2.5017061232123
54	1148	33.1	2.3250266240677
54	1149	33.2	1.7983960252488
54	1150	33.3	2.3978848113678
54	1151	33.4	2.2062237460166
54	1152	33.5	1.9669725708664
54	1167	33.6	2.1599311571801
54	1168	33.7	1.7331379727693
54	1177	33.8	2.0849600718124
54	1178	33.9	1.9293645872269
54	1217	34	2.269487883267
54	1218	34.1	1.5986601229059
54	1219	34.2	2.4939964101184
54	1276	34.3	2.4254528745543
54	1291	34.4	1.7998085318599
54	1292	34.5	1.9845985603053
54	1293	34.6	2.0151564389234
54	1294	34.7	1.9033521255711
54	1295	34.8	2.0345582131296
54	1296	34.9	1.9411993319169
54	1297	35	1.5381273143226
54	1298	35.1	2.5701438870048
54	1299	35.2	2.1951157804113
54	1300	35.3	1.7323569086613
54	1301	35.4	2.5822479731636
54	1302	35.5	1.4986469758023
54	1303	35.6	-0.24063666879666
54	1304	35.7	-0.2358809247613
54	1305	35.8	-0.22678819394205
54	1306	35.9	1.0791902682744
54	1307	36	-0.13877270543016
54	1308	36.1	-0.78430747198873
54	1309	36.2	0.97290923751425
54	1310	36.3	-0.66989948700648
54	1311	36.4	0.28789390765597
54	1312	36.5	-0.55718252765947
54	1313	36.6	0.44276969768108
54	1314	36.7	-0.3491214720998
54	1315	36.8	-0.0018776519689645
54	1316	36.9	0.60904257914517
54	1317	37	-0.47450297079049
54	1318	37.1	0.65949155569541
54	1319	37.2	-0.22480155634693
54	1320	37.3	0.23843480283393
54	1321	37.4	-0.67565646022558
54	1322	37.5	-0.14855288995895
54	1323	37.6	0.57901260533836
54	1324	37.7	-0.23354411686306
54	1325	37.8	-0.33418261311017
54	1326	37.9	0.54536626671908
54	1327	38	-0.24193666840439
54	1328	38.1	-0.30266227042302
54	1329	38.2	-0.058260009903464
54	1330	38.3	0.93330431154465
54	1331	38.4	0.063917498919182
54	1332	38.5	-1.0988447701559
54	1333	38.6	0.12569087350276
54	1366	38.7	0.27058857723604
53	165	8.2	0.25389976076828
53	166	8.3	0.50083860135362
53	167	8.4	0.74518827593374
53	168	8.5	0.98642690152434
53	169	8.6	1.2453906241021
53	170	8.7	1.4489385323218
53	171	8.8	1.6936016405639
53	172	8.9	1.8613799458429
53	173	9	2.0683426582401
53	174	9.1	2.2972287202964
53	183	9.2	2.5173429852089
53	184	9.3	2.7032984260673
53	185	9.4	2.9557546349469
53	186	9.5	3.1354591054533
53	187	9.6	3.3364785163168
53	188	9.7	3.5371966152748
53	189	9.8	3.7555943864531
53	190	9.9	4.0155871909059
53	191	10	4.1517242753359
53	192	10.1	4.2972855867532
53	213	10.2	4.5303144765196
53	214	10.3	4.7140325116266
53	215	10.4	4.8808407532394
53	216	10.5	5.0773934362403
53	217	10.6	5.2199098701023
53	218	10.7	5.4419306911102
53	219	10.8	5.6148415406181
53	220	10.9	5.8117099534667
53	221	11	6.0415887421503
53	222	11.1	6.1879313060635
53	223	11.2	6.4027909495372
53	224	11.3	6.6622646958142
53	225	11.4	6.8701174914225
53	226	11.5	7.0854487764899
53	227	11.6	7.3062107628321
53	228	11.7	7.5643974710692
53	229	11.8	7.7363339338887
53	230	11.9	7.9470595434627
53	231	12	8.1436280491732
53	232	12.1	8.3472809822548
53	259	12.2	8.1819647255185
53	260	12.3	7.8743498924248
53	261	12.4	7.5531436591101
53	262	12.5	7.2425204225816
53	263	12.6	6.9573713250672
53	264	12.7	6.6459887524811
53	265	12.8	6.3731262200454
53	266	12.9	6.1198166752047
53	267	13	5.9218464016352
53	268	13.1	5.6127381952485
53	269	13.2	5.3500923568737
53	270	13.3	5.1749112582436
53	271	13.4	4.8220608407666
53	272	13.5	4.631813185826
53	273	13.6	4.3904198867359
53	274	13.7	4.2090077079888
53	275	13.8	3.9960556450721
53	276	13.9	3.7714987603267
53	277	14	3.4863119625314
53	278	14.1	3.2717911001143
53	299	14.2	3.5317911001143
53	300	14.3	3.7917911001143
53	301	14.4	4.0517911001143
53	302	14.5	4.3117911001143
53	303	14.6	4.5717911001143
53	304	14.7	4.8317911001143
53	325	14.8	5.0917911001143
53	326	14.9	5.3517911001143
53	327	15	5.6117911001143
53	328	15.1	5.8684764441417
53	337	15.2	6.0163750329136
53	338	15.3	6.226087503276
53	339	15.4	6.3717869839828
53	340	15.5	6.6285984219482
53	341	15.6	6.8077083839743
53	342	15.7	6.9735691636928
53	343	15.8	7.2313758458627
53	344	15.9	7.4208564350602
53	345	16	7.5998281275795
53	346	16.1	7.8105118378496
53	373	16.2	8.0658274409605
53	374	16.3	8.2677961670572
53	375	16.4	8.4956343292037
53	376	16.5	8.6681986293371
53	377	16.6	8.8020697948487
53	378	16.7	8.9797717336181
53	379	16.8	9.1936859458766
53	380	16.9	9.3954273779399
53	381	17	9.6200375605712
53	382	17.1	9.8567142517503
53	415	17.2	10.03920680639
53	416	17.3	10.286563266519
53	417	17.4	10.485048559915
53	418	17.5	10.69255550322
53	419	17.6	10.903837651844
53	434	17.7	11.111183022474
53	435	17.8	11.284644917605
53	436	17.9	11.476501016434
53	437	18	11.696542120954
53	438	18.1	11.845226217144
53	483	18.2	12.036555785207
53	484	18.3	12.182367361122
53	485	18.4	12.408449776088
53	530	18.5	12.542254688797
53	531	18.6	12.736262067888
53	532	18.7	12.996082231753
53	533	18.8	13.133228750926
53	534	18.9	13.371642534189
53	535	19	13.576144967471
53	536	19.1	13.822154665714
53	581	19.2	13.858516783204
53	582	19.3	13.820159365318
53	609	19.4	13.875384448175
53	610	19.5	13.881623391241
53	611	19.6	13.874963957053
53	612	19.7	13.885804472454
53	613	19.8	13.83516350118
53	614	19.9	13.866989249124
53	615	20	13.827997034285
53	616	20.1	13.847584948146
53	617	20.2	13.822286276675
53	618	20.3	13.832628208799
53	627	20.4	13.849506810925
53	628	20.5	13.846518414002
53	629	20.6	13.814832654756
53	630	20.7	13.817896142672
53	631	20.8	13.795427503067
53	632	20.9	13.860442881351
53	633	21	13.798212069243
53	634	21.1	13.779031214784
53	635	21.2	13.826143864484
53	636	21.3	13.864356268642
53	637	21.4	13.813188518677
53	638	21.5	13.86015623274
53	639	21.6	13.770364671068
53	640	21.7	13.766022158863
53	641	21.8	13.788065134608
53	642	21.9	13.826245412752
53	643	22	13.831470818613
53	644	22.1	13.795419330166
53	645	22.2	13.771484621635
53	646	22.3	13.798356752142
53	647	22.4	13.806682047618
53	648	22.5	13.763237691997
53	649	22.6	13.775108672518
53	650	22.7	13.87696727267
53	651	22.8	13.86873735718
53	652	22.9	13.834933606582
53	653	23	13.850067516514
53	654	23.1	13.791013229408
53	655	23.2	13.847145349632
53	656	23.3	13.858736248333
53	707	23.4	13.765776109092
53	708	23.5	13.843873252473
53	709	23.6	13.826784628951
53	710	23.7	13.853707673899
53	711	23.8	13.777308081507
53	712	23.9	13.788940877514
53	713	24	13.830081779012
53	714	24.1	13.808469107724
53	715	24.2	13.821962590979
53	716	24.3	13.876384305584
53	717	24.4	13.881850447883
53	718	24.5	13.858292506707
53	719	24.6	13.835719903994
53	720	24.7	13.80438147092
53	721	24.8	13.824726274093
53	760	24.9	13.855297044995
53	761	25	13.848357583075
53	762	25.1	13.770262252323
53	771	25.2	13.877284679334
53	772	25.3	13.87003427366
53	773	25.4	13.782948676478
53	774	25.5	13.879394456318
53	775	25.6	13.82079835702
53	776	25.7	13.88807847922
53	777	25.8	13.79034316293
53	778	25.9	13.7891945089
53	779	26	13.791682660652
53	780	26.1	13.820944634497
53	781	26.2	13.848656277375
53	782	26.3	13.83406938812
53	783	26.4	13.870633267311
53	784	26.5	13.872800261439
53	785	26.6	13.791163716011
53	794	26.7	13.825857095104
53	795	26.8	13.845820405423
53	816	26.9	13.827150330211
53	817	27	13.745560036346
53	818	27.1	13.3503377024
53	819	27.2	13.07546344665
53	820	27.3	12.627075383883
53	821	27.4	12.321737644166
53	822	27.5	12.051529588318
53	823	27.6	11.663998801051
53	824	27.7	11.28634267673
53	825	27.8	10.986142336504
53	858	27.9	10.666318730651
53	909	28	10.379664202009
53	924	28.1	10.063595816478
53	925	28.2	9.7353032507787
53	926	28.3	9.4089958557893
53	927	28.4	9.0714877073436
53	928	28.5	8.8620908943672
53	929	28.6	8.5259081782402
53	930	28.7	8.1280661228209
53	931	28.8	7.9026162184323
53	932	28.9	7.623872142684
53	933	29	7.3335369521205
53	934	29.1	7.0026579691321
53	935	29.2	6.7999039023314
53	936	29.3	6.468073662996
53	993	29.4	6.2455946769995
53	994	29.5	5.9498241440663
53	995	29.6	5.6347256448529
53	996	29.7	5.4609671368498
53	1011	29.8	5.1355822816414
53	1012	29.9	4.8565519510456
53	1013	30	4.7023632481822
53	1014	30.1	4.3624130170069
53	1015	30.2	4.2152884951237
53	1016	30.3	3.9075002194594
53	1017	30.4	3.7924250778934
53	1018	30.5	3.544088973991
53	1019	30.6	3.2719686771669
53	1020	30.7	3.5319686771669
53	1021	30.8	3.7919686771669
53	1022	30.9	4.0519686771669
53	1023	31	4.3119686771669
53	1024	31.1	4.4950380432927
53	1039	31.2	4.7550380432927
53	1040	31.3	5.0150380432927
53	1041	31.4	5.2750380432927
53	1042	31.5	5.5350380432927
53	1043	31.6	5.7532531927126
53	1044	31.7	5.9980247471198
53	1045	31.8	6.1905644088001
53	1046	31.9	6.3293970342744
53	1047	32	6.5851411085106
53	1048	32.1	6.7817221000972
53	1049	32.2	6.9821793748154
53	1050	32.3	7.140731274839
53	1051	32.4	7.3930861411216
53	1052	32.5	7.5625179674286
53	1091	32.6	7.7630574368844
53	1092	32.7	8.0060359132146
53	1093	32.8	8.2496081349994
53	1114	32.9	8.4693557333034
53	1115	33	8.7195263456246
53	1148	33.1	8.9520290080314
53	1149	33.2	9.1318686105562
53	1150	33.3	9.371657091693
53	1151	33.4	9.5922794662947
53	1152	33.5	9.7889767233813
53	1167	33.6	10.004969839099
53	1168	33.7	10.178283636376
53	1177	33.8	10.386779643558
53	1178	33.9	10.57971610228
53	1217	34	10.806664890607
53	1218	34.1	10.966530902897
53	1219	34.2	11.215930543909
53	1276	34.3	11.458475831365
53	1291	34.4	11.638456684551
53	1292	34.5	11.836916540581
53	1293	34.6	12.038432184474
53	1294	34.7	12.228767397031
53	1295	34.8	12.432223218344
53	1296	34.9	12.626343151535
53	1297	35	12.780155882968
53	1298	35.1	13.037170271668
53	1299	35.2	13.256681849709
53	1300	35.3	13.429917540575
53	1301	35.4	13.688142337892
53	1302	35.5	13.838007035472
53	1303	35.6	13.813943368592
53	1304	35.7	13.790355276116
53	1305	35.8	13.767676456722
53	1306	35.9	13.875595483549
53	1307	36	13.861718213006
53	1308	36.1	13.783287465808
53	1309	36.2	13.880578389559
53	1310	36.3	13.813588440858
53	1311	36.4	13.842377831624
53	1312	36.5	13.786659578858
53	1313	36.6	13.830936548626
53	1314	36.7	13.796024401416
53	1315	36.8	13.795836636219
53	1316	36.9	13.856740894134
53	1317	37	13.809290597055
53	1318	37.1	13.875239752624
53	1319	37.2	13.852759596989
53	1320	37.3	13.876603077273
53	1321	37.4	13.80903743125
53	1322	37.5	13.794182142254
53	1323	37.6	13.852083402788
53	1324	37.7	13.828728991102
53	1325	37.8	13.795310729791
53	1326	37.9	13.849847356463
53	1327	38	13.825653689622
53	1328	38.1	13.79538746258
53	1329	38.2	13.78956146159
53	1330	38.3	13.882891892744
53	1331	38.4	13.889283642636
53	1332	38.5	13.779399165621
53	1333	38.6	13.791968252971
53	1366	38.7	13.819027110694
52	150	8.1	1756.3437279736
52	165	8.2	1756.3437279736
52	166	8.3	1756.3185059097
52	167	8.4	1756.2687532706
52	168	8.5	1756.1947272605
52	169	8.6	1756.0967369268
52	170	8.7	1755.9730214821
52	171	8.8	1755.8290858595
52	172	8.9	1755.6608457297
52	173	9	1755.4759387268
52	174	9.1	1755.2704723238
52	183	9.2	1755.0422686845
52	184	9.3	1754.7921991875
52	185	9.4	1754.5236571249
52	186	9.5	1754.2300363989
52	187	9.6	1753.9185640704
52	188	9.7	1753.5871227415
52	189	9.8	1753.2357423442
52	190	9.9	1752.8626666033
52	191	10	1752.4637635238
52	192	10.1	1752.0513367678
52	213	10.2	1751.6244501451
52	214	10.3	1751.1744147431
52	215	10.4	1750.7061290363
52	216	10.5	1750.2212728211
52	217	10.6	1749.7168913244
52	218	10.7	1749.1983524351
52	219	10.8	1748.6577582933
52	220	10.9	1748.0999874182
52	221	11	1747.5226598974
52	222	11.1	1746.922496524
52	223	11.2	1746.3077956755
52	224	11.3	1745.6717509563
52	225	11.4	1745.009930461
52	226	11.5	1744.327462146
52	227	11.6	1743.6207756267
52	228	11.7	1742.890678728
52	229	11.8	1742.1347816818
52	230	11.9	1741.3617033247
52	231	12	1740.567567525
52	232	12.1	1739.7537889774
52	259	12.2	1738.9196597473
52	260	12.3	1738.1020502825
52	261	12.4	1737.3151802314
52	262	12.5	1736.560407759
52	263	12.6	1735.8366753248
52	264	12.7	1735.1414373427
52	265	12.8	1734.4773152779
52	266	12.9	1733.8404598901
52	267	13	1733.2289172834
52	268	13.1	1732.6371575007
52	269	13.2	1732.0762863621
52	270	13.3	1731.541660964
52	271	13.4	1731.0245411075
52	272	13.5	1730.5426809778
52	273	13.6	1730.0798319645
52	274	13.7	1729.6411049626
52	275	13.8	1729.2205061633
52	276	13.9	1728.8211872922
52	277	14	1728.4443079989
52	278	14.1	1728.095926925
52	299	14.2	1727.7689825467
52	300	14.3	1727.4160568219
52	301	14.4	1727.0371497505
52	302	14.5	1726.6322613326
52	303	14.6	1726.2013915682
52	304	14.7	1725.7445404572
52	325	14.8	1725.2617079997
52	326	14.9	1724.7528941957
52	327	15	1724.2180990451
52	328	15.1	1723.657322548
52	337	15.2	1723.0732648644
52	338	15.3	1722.4750950348
52	339	15.4	1721.8560748305
52	340	15.5	1721.2225686555
52	341	15.6	1720.5731269645
52	342	15.7	1719.9812290148
52	343	15.8	1719.3749102572
52	344	15.9	1718.7461764315
52	345	16	1718.2962206252
52	346	16.1	1717.9047798024
52	373	16.2	1717.5024873914
52	374	16.3	1717.2906846357
52	375	16.4	1717.1825437658
52	376	16.5	1717.0714228252
52	377	16.6	1716.9818268246
52	378	16.7	1716.9914063509
52	379	16.8	1717.0011792749
52	380	16.9	1717.0111850075
52	381	17	1717.0214103006
52	382	17.1	1717.0318800429
52	415	17.2	1717.0426073667
52	416	17.3	1717.0535333021
52	417	17.4	1717.064728442
52	418	17.5	1717.0761395988
52	419	17.6	1717.0877765908
52	434	17.7	1717.0996435269
52	435	17.8	1717.1117361224
52	436	17.9	1717.1240175011
52	437	18	1717.1365076819
52	438	18.1	1717.1492373393
52	483	18.2	1717.1621288135
52	484	18.3	1717.1752285168
52	485	18.4	1717.1884869107
52	530	18.5	1717.201991356
52	531	18.6	1717.2156414249
52	532	18.7	1717.2295026371
52	533	18.8	1717.2436466184
52	534	18.9	1717.25793986
52	535	19	1717.2724925736
52	536	19.1	1717.2872678527
52	581	19.2	1717.3023108707
52	582	19.3	1717.3173934625
52	609	19.4	1717.3324343089
52	610	19.5	1717.3475352582
52	611	19.6	1717.3626429975
52	612	19.7	1717.3777434892
52	613	19.8	1717.392855779
52	614	19.9	1717.4079129548
52	615	20	1717.4230047674
52	616	20.1	1717.4380541437
52	617	20.2	1717.4531248381
52	618	20.3	1717.4681679993
52	627	20.4	1717.4832224159
52	628	20.5	1717.4982952019
52	629	20.6	1717.5133647356
52	630	20.7	1717.5283997848
52	631	20.8	1717.5434381681
52	632	20.9	1717.5584520981
52	633	21	1717.5735367861
52	634	21.1	1717.5885537467
52	635	21.2	1717.5728565468
52	636	21.3	1717.5538183994
52	637	21.4	1717.5347276348
52	638	21.5	1717.5157073265
52	639	21.6	1717.4966223452
52	640	21.7	1717.477661004
52	641	21.8	1717.4587056422
52	642	21.9	1717.439719928
52	643	22	1717.4206816408
52	644	22.1	1717.4016361584
52	645	22.2	1717.3826403177
52	646	22.3	1717.3636774343
52	647	22.4	1717.3446775489
52	648	22.5	1717.3256661998
52	649	22.6	1717.3067146721
52	650	22.7	1717.2877467986
52	651	22.8	1717.268638669
52	652	22.9	1717.2495418718
52	653	23	1717.2304916212
52	654	23.1	1717.1241042708
52	655	23.2	1716.6756487512
52	656	23.3	1715.6490312878
52	707	23.4	1714.3054871019
52	708	23.5	1712.9306633955
52	709	23.6	1711.5462765066
52	710	23.7	1710.1635984796
52	711	23.8	1708.7782281489
52	712	23.9	1707.4004977751
52	713	24	1706.021604122
52	714	24.1	1704.63859638
52	715	24.2	1703.2577499045
52	716	24.3	1701.8755540811
52	717	24.4	1700.487916088
52	718	24.5	1699.0997314808
52	719	24.6	1697.713902667
52	720	24.7	1696.3303311127
52	721	24.8	1694.9498934007
52	760	24.9	1693.5674212091
52	761	25	1692.1818919414
52	762	25.1	1690.7970566196
52	771	25.2	1689.4200308284
52	772	25.3	1688.0323027979
52	773	25.4	1686.6452998078
52	774	25.5	1685.2670051939
52	775	25.6	1683.8790655135
52	776	25.7	1682.4969854439
52	777	25.8	1681.108177361
52	778	25.9	1679.7291428113
52	779	26	1678.3502231271
52	780	26.1	1676.9710546277
52	781	26.2	1675.5889599304
52	782	26.3	1674.2040940683
52	783	26.4	1672.8206868954
52	784	26.5	1671.433623334
52	785	26.6	1670.0463430731
52	794	26.7	1668.6672264682
52	795	26.8	1667.2846405247
52	816	26.9	1665.9000582499
52	817	27	1664.5173429829
52	818	27.1	1663.1427867467
52	819	27.2	1661.8077527506
52	820	27.3	1660.5002061847
52	821	27.4	1659.2374984326
52	822	27.5	1658.0053244597
52	823	27.6	1656.800171297
52	824	27.7	1655.6337712195
52	825	27.8	1654.5051367609
52	858	27.9	1653.4065223413
52	909	28	1652.3398902878
52	924	28.1	1651.3019236919
52	925	28.2	1650.29556394
52	926	28.3	1649.3220334502
52	927	28.4	1648.3811337054
52	928	28.5	1647.4739847812
52	929	28.6	1646.5877755418
52	930	28.7	1645.7351845797
52	931	28.8	1644.9223778299
52	932	28.9	1644.1321160743
52	933	29	1643.3697287311
52	934	29.1	1642.6363749118
52	935	29.2	1641.9361089964
52	936	29.3	1641.2561184911
52	993	29.4	1640.6093110153
52	994	29.5	1639.984751442
52	995	29.6	1639.3897689269
52	996	29.7	1638.8262962671
52	1011	29.8	1638.280199461
52	1012	29.9	1637.7666411459
52	1013	30	1637.2809858686
52	1014	30.1	1636.8107494642
52	1015	30.2	1636.3745080887
52	1016	30.3	1635.9529791679
52	1017	30.4	1635.5622290798
52	1018	30.5	1635.1829865079
52	1019	30.6	1634.8285775505
52	1020	30.7	1634.5013806274
52	1021	30.8	1634.1481836999
52	1022	30.9	1633.7689867681
52	1023	31	1633.3637898318
52	1024	31.1	1632.9325928911
52	1039	31.2	1632.5067392334
52	1040	31.3	1632.113374648
52	1041	31.4	1631.6985013404
52	1042	31.5	1631.3196708456
52	1043	31.6	1631.0678496397
52	1044	31.7	1631.133117045
52	1045	31.8	1631.4171558745
52	1046	31.9	1631.9349813356
52	1047	32	1632.4644198037
52	1048	32.1	1633.0905077857
52	1049	32.2	1633.7685968788
52	1050	32.3	1634.4667292425
52	1051	32.4	1635.1807148531
52	1052	32.5	1635.9199328573
52	1091	32.6	1636.6760919677
52	1092	32.7	1637.4523025672
52	1093	32.8	1638.2528080363
52	1114	32.9	1639.0776677425
52	1115	33	1639.9244995152
52	1148	33.1	1640.796345283
52	1149	33.2	1641.6914384676
52	1150	33.3	1642.6045134082
52	1151	33.4	1643.5415642582
52	1152	33.5	1644.5006746416
52	1167	33.6	1645.47945234
52	1168	33.7	1646.4798267028
52	1177	33.8	1647.4975303212
52	1178	33.9	1648.5360809849
52	1217	34	1649.5939229299
52	1218	34.1	1650.6744569723
52	1219	34.2	1651.7709756565
52	1276	34.3	1652.8924312482
52	1291	34.4	1654.038138396
52	1292	34.5	1655.2018414233
52	1293	34.6	1656.3853880038
52	1294	34.7	1657.589083679
52	1295	34.8	1658.8118105426
52	1296	34.9	1660.0548804949
52	1297	35	1661.3173600613
52	1298	35.1	1662.5952190157
52	1299	35.2	1663.898776259
52	1300	35.3	1665.2242819698
52	1301	35.4	1666.5671091265
52	1302	35.5	1667.9357555981
52	1303	35.6	1669.3193867027
52	1304	35.7	1670.7006117356
52	1305	35.8	1672.0794782483
52	1306	35.9	1673.456077157
52	1307	36	1674.8434666458
52	1308	36.1	1676.2294685776
52	1309	36.2	1677.6076283959
52	1310	36.3	1678.9955161141
52	1311	36.4	1680.3767056586
52	1312	36.5	1681.7607737892
52	1313	36.6	1683.1392707775
52	1314	36.7	1684.5221949201
52	1315	36.8	1685.9016281539
52	1316	36.9	1687.2810420667
52	1317	37	1688.6665456558
52	1318	37.1	1690.0473047992
52	1319	37.2	1691.4346580466
52	1320	37.3	1692.819763555
52	1321	37.4	1694.2072531181
52	1322	37.5	1695.5879869479
52	1323	37.6	1696.9672354317
52	1324	37.7	1698.352273329
52	1325	37.8	1699.7349760726
52	1326	37.9	1701.1143374012
52	1327	38	1702.4991517214
52	1328	38.1	1703.8815469726
52	1329	38.2	1705.2609159736
52	1330	38.3	1706.6397024461
52	1331	38.4	1708.0278208133
52	1332	38.5	1709.4165782769
52	1333	38.6	1710.7943486449
52	1366	38.7	1712.173375767
51	150	8.1	6437.2324310417
51	165	8.2	6437.2324310417
51	166	8.3	6437.235330632
51	167	8.4	6437.2410503172
51	168	8.5	6437.2495605287
51	169	8.6	6437.2608257375
51	170	8.7	6437.275048368
51	171	8.8	6437.2915955598
51	172	8.9	6437.3109368572
51	173	9	6437.3321942192
51	174	9.1	6437.3558151401
51	183	9.2	6437.3820499895
51	184	9.3	6437.4107985914
51	185	9.4	6437.4416708447
51	186	9.5	6437.4754262025
51	187	9.6	6437.5112338244
51	188	9.7	6437.5493371314
51	189	9.8	6437.5897326826
51	190	9.9	6437.6326223836
51	191	10	6437.6784812587
51	192	10.1	6437.7258948488
51	213	10.2	6437.7749707805
51	214	10.3	6437.8267079527
51	215	10.4	6437.8805432246
51	216	10.5	6437.9362834827
51	217	10.6	6437.994268415
51	218	10.7	6438.0538809159
51	219	10.8	6438.1160289426
51	220	10.9	6438.1801516486
51	221	11	6438.2465226346
51	222	11.1	6438.315518886
51	223	11.2	6438.3861864013
51	224	11.3	6438.4593076601
51	225	11.4	6438.5353921654
51	226	11.5	6438.6138503945
51	227	11.6	6438.6572483481
51	228	11.7	6438.6835261547
51	229	11.8	6438.7107325659
51	230	11.9	6438.7385573706
51	231	12	6438.7671400794
51	232	12.1	6438.7964297742
51	259	12.2	6438.8264519352
51	260	12.3	6438.8558795132
51	261	12.4	6438.8842007115
51	262	12.5	6438.9113666468
51	263	12.6	6438.9374153823
51	264	12.7	6438.9624385392
51	265	12.8	6438.9863417653
51	266	12.9	6439.0092636032
51	267	13	6439.0312743779
51	268	13.1	6439.052573125
51	269	13.2	6439.0727601212
51	270	13.3	6439.092002475
51	271	13.4	6439.1106147656
51	272	13.5	6439.1279579804
51	273	13.6	6439.1446169429
51	274	13.7	6439.1604077008
51	275	13.8	6439.1755459844
51	276	13.9	6439.1899183562
51	277	14	6439.2034830779
51	278	14.1	6439.2160220854
51	299	14.2	6439.2277895387
51	300	14.3	6439.2404921183
51	301	14.4	6439.2541298242
51	302	14.5	6439.2687026563
51	303	14.6	6439.2842106148
51	304	14.7	6439.3006536995
51	325	14.8	6439.3180319105
51	326	14.9	6439.3363452478
51	327	15	6439.3555937114
51	328	15.1	6439.3757773013
51	337	15.2	6439.3301076234
51	338	15.3	6439.2661653313
51	339	15.4	6439.199994206
51	340	15.5	6439.1322745804
51	341	15.6	6439.0320187128
51	342	15.7	6438.6958436638
51	343	15.8	6438.3514781558
51	344	15.9	6437.9943817596
51	345	16	6437.4278097289
51	346	16.1	6436.7764778679
51	373	16.2	6436.1070896758
51	374	16.3	6435.3446625021
51	375	16.4	6434.5250685406
51	376	16.5	6433.6828887803
51	377	16.6	6432.8221417704
51	378	16.7	6431.9419246424
51	379	16.8	6431.0439371157
51	380	16.9	6430.124557921
51	381	17	6429.1850043506
51	382	17.1	6428.2229895029
51	415	17.2	6427.2373067133
51	416	17.3	6426.2333744577
51	417	17.4	6425.204706271
51	418	17.5	6424.1561893261
51	419	17.6	6423.0869214475
51	434	17.7	6421.9965251106
51	435	17.8	6420.8853939975
51	436	17.9	6419.7569164949
51	437	18	6418.6092531612
51	438	18.1	6417.4395854633
51	483	18.2	6416.2550491844
51	484	18.3	6415.0513797281
51	485	18.4	6413.8331289461
51	530	18.5	6412.5922696619
51	531	18.6	6411.3380297322
51	532	18.7	6410.0643888409
51	533	18.8	6408.7647656336
51	534	18.9	6407.4514276163
51	535	19	6406.1142479458
51	536	19.1	6404.7566177962
51	581	19.2	6403.3743863931
51	582	19.3	6401.9885187363
51	609	19.4	6400.6064868656
51	610	19.5	6399.2189324229
51	611	19.6	6397.8307540786
51	612	19.7	6396.4432416855
51	613	19.8	6395.0546452284
51	614	19.9	6393.6711129267
51	615	20	6392.2843980136
51	616	20.1	6390.9015823669
51	617	20.2	6389.5168079063
51	618	20.3	6388.1345633419
51	627	20.4	6386.7512845725
51	628	20.5	6385.3663179233
51	629	20.6	6383.9816501173
51	630	20.7	6382.6001509237
51	631	20.8	6381.2183453779
51	632	20.9	6379.8387867218
51	633	21	6378.452726453
51	634	21.1	6377.0728893372
51	635	21.2	6375.6950146259
51	636	21.3	6374.3124334909
51	637	21.4	6372.9260312075
51	638	21.5	6371.5447455759
51	639	21.6	6370.158763286
51	640	21.7	6368.7817599362
51	641	21.8	6367.4051908273
51	642	21.9	6366.0264174737
51	643	22	6364.6438261842
51	644	22.1	6363.2607123667
51	645	22.2	6361.8812036113
51	646	22.3	6360.5040882692
51	647	22.4	6359.1242857786
51	648	22.5	6357.7436507786
51	649	22.6	6356.3673601096
51	650	22.7	6354.9898823711
51	651	22.8	6353.6022190176
51	652	22.9	6352.2153786358
51	653	23	6350.8319185478
51	654	23.1	6349.4535274553
51	655	23.2	6348.1759708494
51	656	23.3	6347.2990083989
51	707	23.4	6347.0189204069
51	708	23.5	6346.9887673894
51	709	23.6	6346.9873080919
51	710	23.7	6346.9858505957
51	711	23.8	6346.9843902616
51	712	23.9	6346.9829379808
51	713	24	6346.9814844738
51	714	24.1	6346.9800266301
51	715	24.2	6346.9785710646
51	716	24.3	6346.9771140767
51	717	24.4	6346.9756513522
51	718	24.5	6346.9741880515
51	719	24.6	6346.972727234
51	720	24.7	6346.971268796
51	721	24.8	6346.9698136613
51	760	24.9	6346.9683563822
51	761	25	6346.9668958805
51	762	25.1	6346.9654361103
51	771	25.2	6346.9639845722
51	772	25.3	6346.9625217528
51	773	25.4	6346.9610596976
51	774	25.5	6346.9598593003
51	775	25.6	6346.9593357471
51	776	25.7	6346.9588144042
51	777	25.8	6346.9582905233
51	778	25.9	6346.9577703292
51	779	26	6346.9572501785
51	780	26.1	6346.9567299338
51	781	26.2	6346.9562085854
51	782	26.3	6346.9556861917
51	783	26.4	6346.9551643481
51	784	26.5	6346.9546411254
51	785	26.6	6346.9541178209
51	794	26.7	6346.9535975958
51	795	26.8	6346.9530760621
51	816	26.9	6346.9525537753
51	817	27	6346.9520321928
51	818	27.1	6346.9515136879
51	819	27.2	6346.9510100916
51	820	27.3	6346.9505168639
51	821	27.4	6346.9500405501
51	822	27.5	6346.9495757542
51	823	27.6	6346.949121151
51	824	27.7	6346.9486811661
51	825	27.8	6346.9482554269
51	858	27.9	6346.9478410118
51	909	28	6346.947438661
51	924	28.1	6346.9470471232
51	925	28.2	6346.9466675081
51	926	28.3	6346.9463002767
51	927	28.4	6346.9459453541
51	928	28.5	6346.9456031629
51	929	28.6	6346.9452688704
51	930	28.7	6346.9449472594
51	931	28.8	6346.9446406555
51	932	28.9	6346.944342556
51	933	29	6346.9440549712
51	934	29.1	6346.9437783383
51	935	29.2	6346.9435141867
51	936	29.3	6346.9432576833
51	993	29.4	6346.9430136971
51	994	29.5	6346.9427781031
51	995	29.6	6346.9425536661
51	996	29.7	6346.9423411152
51	1011	29.8	6346.9421351186
51	1012	29.9	6346.9419413961
51	1013	30	6346.9417581991
51	1014	30.1	6346.9415808184
51	1015	30.2	6346.9414162611
51	1016	30.3	6346.9412572536
51	1017	30.4	6346.9411098563
51	1018	30.5	6346.9409667999
51	1019	30.6	6346.9408331111
51	1020	30.7	6346.9407096871
51	1021	30.8	6346.9405764556
51	1022	30.9	6346.9404334164
51	1023	31	6346.9402805695
51	1024	31.1	6346.9401179151
51	1039	31.2	6346.863572003
51	1040	31.3	6346.59813086
51	1041	31.4	6346.3181757013
51	1042	31.5	6345.9726906986
51	1043	31.6	6345.4810397728
51	1044	31.7	6344.9676496491
51	1045	31.8	6344.442042083
51	1046	31.9	6344.0996091168
51	1047	32	6343.7494965814
51	1048	32.1	6343.640173711
51	1049	32.2	6343.6404294971
51	1050	32.3	6343.6406928439
51	1051	32.4	6343.6409621708
51	1052	32.5	6343.6412410158
51	1091	32.6	6343.6415262512
51	1092	32.7	6343.6418190504
51	1093	32.8	6343.642121014
51	1114	32.9	6343.6424321644
51	1115	33	6343.642751603
51	1148	33.1	6343.6430804773
51	1149	33.2	6343.6434181209
51	1150	33.3	6343.6437625475
51	1151	33.4	6343.6441160182
51	1152	33.5	6343.6444778101
51	1167	33.6	6343.6448470209
51	1168	33.7	6343.6452243782
51	1177	33.8	6343.6456082725
51	1178	33.9	6343.6460000305
51	1217	34	6343.6463990656
51	1218	34.1	6343.6468066605
51	1219	34.2	6343.647220285
51	1276	34.3	6343.6476433162
51	1291	34.4	6343.6480754954
51	1292	34.5	6343.648514463
51	1293	34.6	6343.6489609159
51	1294	34.7	6343.6494149693
51	1295	34.8	6343.6498762016
51	1296	34.9	6343.6503451077
51	1297	35	6343.6508213354
51	1298	35.1	6343.6513033644
51	1299	35.2	6343.6517950872
51	1300	35.3	6343.6522950894
51	1301	35.4	6343.6528016255
51	1302	35.5	6343.653317901
51	1303	35.6	6343.653839829
51	1304	35.7	6343.6543608494
51	1305	35.8	6343.6548809801
51	1306	35.9	6343.6554002554
51	1307	36	6343.6559236011
51	1308	36.1	6343.6564464235
51	1309	36.2	6343.6569662876
51	1310	36.3	6343.6574898212
51	1311	36.4	6343.6580108282
51	1312	36.5	6343.6585329211
51	1313	36.6	6343.6590529124
51	1314	36.7	6343.6595745737
51	1315	36.8	6343.6602653372
51	1316	36.9	6343.6617199038
51	1317	37	6343.6631808917
51	1318	37.1	6343.6646368768
51	1319	37.2	6343.6660998152
51	1320	37.3	6343.6675603834
51	1321	37.4	6343.6690234655
51	1322	37.5	6343.6704794238
51	1323	37.6	6343.6719338159
51	1324	37.7	6343.6733943128
51	1325	37.8	6343.6748523474
51	1326	37.9	6343.6763068584
51	1327	38	6343.6777671196
51	1328	38.1	6343.6792248298
51	1329	38.2	6343.680679349
51	1330	38.3	6343.6821332539
51	1331	38.4	6343.6835969991
51	1332	38.5	6343.6850614182
51	1333	38.6	6343.6865142516
51	1366	38.7	6343.6879684103
13	40	2.3	1.4309021354274
13	41	2.4	1.5843964237599
13	42	2.5	1.6612379235842
13	43	2.6	1.860333995049
13	44	2.7	1.902440209896
13	45	2.8	2.0964817650527
13	46	2.9	1.9353337638279
13	47	3	2.426400888677
13	48	3.1	2.068065907182
13	63	3.2	2.4008393576396
13	64	3.3	2.4992495751963
13	65	3.4	2.4007332520247
13	66	3.5	2.5190458699115
13	67	3.6	2.7111150771871
13	68	3.7	2.825286502975
13	69	3.8	2.9810105426588
13	70	3.9	2.7164707756693
13	71	4	3.5055670321553
13	72	4.1	3.9229908696862
13	81	4.2	3.9032641762101
13	82	4.3	3.691535583917
13	83	4.4	3.7080152136665
13	84	4.5	3.07797652119
13	85	4.6	3.0231592460158
13	86	4.7	4.4550390490054
13	87	4.8	2.7225656697675
13	88	4.9	2.1275006151995
13	89	5	0.973
13	90	5.1	1.3575205934279
13	99	5.2	0.973
13	100	5.3	2.3020786255489
13	101	5.4	1.613330357252
13	102	5.5	1.7400320261296
13	103	5.6	0.973
13	104	5.7	0.973
13	105	5.8	1.3189556856636
13	106	5.9	1.8590592321141
13	107	6	1.6720726179372
13	108	6.1	1.6437285729119
13	117	6.2	0.973
13	118	6.3	1.9318826708182
13	119	6.4	0.973
13	120	6.5	2.4979280309226
13	121	6.6	0.973
13	122	6.7	1.8214790696689
13	123	6.8	1.4397396496705
13	124	6.9	0.973
13	125	7	1.2989113881542
13	126	7.1	1.5904663899807
13	141	7.2	0.973
13	142	7.3	2.1407968259651
13	143	7.4	0.973
13	144	7.5	1.9897127095334
13	145	7.6	1.2639434630379
13	146	7.7	1.9428731750212
13	147	7.8	1.657927478995
13	148	7.9	0.973
13	149	8	1.5985224778862
13	150	8.1	0.973
13	165	8.2	2.9293050580188
13	166	8.3	1.307547813473
13	167	8.4	1.4376924006143
13	168	8.5	0.973
13	169	8.6	0.973
13	170	8.7	2.6310450325761
13	171	8.8	0.973
13	172	8.9	0.973
13	173	9	1.5418685582854
13	174	9.1	1.6083992242353
13	183	9.2	0.973
13	184	9.3	2.5269470287343
13	185	9.4	0.973
13	186	9.5	2.530400396084
13	187	9.6	0.973
13	188	9.7	1.3157649973296
13	189	9.8	1.4647375384738
13	190	9.9	0.973
13	191	10	0.973
13	192	10.1	0.973
13	213	10.2	0.973
13	214	10.3	0.973
13	215	10.4	0.973
13	216	10.5	0.973
13	217	10.6	0.973
13	218	10.7	0.973
13	219	10.8	3.519540124054
13	220	10.9	3.6959823526564
13	221	11	3.8725678748446
13	222	11.1	4.0493064325257
13	223	11.2	3.9302027815684
13	224	11.3	4.3860673205522
13	225	11.4	4.5633052983073
13	226	11.5	4.7407343325522
13	227	11.6	4.0864455635657
13	228	11.7	0.973
13	229	11.8	0.973
13	230	11.9	2.6341046809522
13	231	12	0.973
13	232	12.1	0.973
13	259	12.2	1.3530137205716
13	260	12.3	2.2140644323154
13	261	12.4	1.2206819231969
13	262	12.5	2.1494481624532
13	263	12.6	0.973
13	264	12.7	1.3822034021979
13	265	12.8	2.1761684148053
13	266	12.9	0.973
13	267	13	1.6187025887996
13	268	13.1	0.973
13	269	13.2	0.973
13	270	13.3	1.3705412809096
13	271	13.4	2.1172424596938
13	272	13.5	1.7539603225097
13	273	13.6	0.973
13	274	13.7	2.504697933786
13	275	13.8	0.973
13	276	13.9	0.973
13	277	14	0.973
13	278	14.1	2.2742978137323
13	299	14.2	1.3317863683711
13	300	14.3	1.9629814048944
13	301	14.4	0.973
13	302	14.5	1.4968628650732
13	303	14.6	1.3440469106841
13	304	14.7	1.3968549676025
13	325	14.8	0.973
13	326	14.9	0.973
13	327	15	2.6832419539293
13	328	15.1	0.973
13	337	15.2	2.3570451398132
13	338	15.3	1.3588100511455
13	339	15.4	0.973
13	340	15.5	2.4932503345928
13	341	15.6	0.973
13	342	15.7	0.973
13	343	15.8	0.973
13	344	15.9	1.4617495544126
13	345	16	1.3265335179011
13	346	16.1	1.310949829755
13	373	16.2	2.8360671352839
13	374	16.3	0.973
13	375	16.4	1.7693481841027
13	376	16.5	1.2642326384259
13	377	16.6	0.973
13	378	16.7	1.9794918801205
13	379	16.8	0.973
13	380	16.9	2.0799224442716
13	381	17	0.973
13	382	17.1	2.5977040009149
13	415	17.2	0.973
13	416	17.3	1.8764037107917
13	417	17.4	0.973
13	418	17.5	2.7469433045664
13	419	17.6	0.973
13	434	17.7	0.973
13	435	17.8	1.400609505929
13	436	17.9	0.973
13	437	18	0.973
13	438	18.1	0.973
13	483	18.2	0.973
13	484	18.3	0.973
13	485	18.4	0.973
13	530	18.5	0.973
13	531	18.6	0.973
13	532	18.7	0.973
13	533	18.8	3.5755831703194
13	534	18.9	3.7520698692694
13	535	19	3.9287029569355
13	536	19.1	4.1054921752249
13	581	19.2	4.2824472660446
13	582	19.3	4.4595779713019
13	609	19.4	4.636894032904
13	610	19.5	4.814405192758
13	611	19.6	2.641032564596
13	612	19.7	0.973
13	613	19.8	1.3928709568039
13	614	19.9	1.3998161727696
13	615	20	2.0219745912814
13	616	20.1	1.295033494866
13	617	20.2	0.973
13	618	20.3	0.973
13	627	20.4	0.973
13	628	20.5	0.973
13	629	20.6	0.973
13	630	20.7	0.973
13	631	20.8	0.973
13	632	20.9	0.973
13	633	21	0.973
13	634	21.1	0.973
13	635	21.2	0.973
13	636	21.3	3.5686344575501
13	637	21.4	3.7451155898628
13	638	21.5	3.921742727171
13	639	21.6	4.0985256113818
13	640	21.7	4.2754739844024
13	641	21.8	4.4525975881399
13	642	21.9	4.2331448944059
13	643	22	4.7867747567496
13	644	22.1	3.1830579052611
13	645	22.2	0.973
13	646	22.3	0.973
13	647	22.4	2.5868691650799
13	648	22.5	0.973
13	649	22.6	1.4396845114623
13	650	22.7	1.6911436737549
13	651	22.8	0.973
13	652	22.9	2.4441695498108
13	653	23	0.973
13	654	23.1	1.8513286977815
13	655	23.2	1.6231515196716
13	656	23.3	1.6892714169238
13	707	23.4	0.973
13	708	23.5	1.4549629051595
13	709	23.6	2.6781563026612
13	710	23.7	0.973
13	711	23.8	1.3909965622051
13	712	23.9	2.1399114767818
13	713	24	0.973
13	714	24.1	0.973
13	715	24.2	2.5478066496597
13	716	24.3	0.973
13	717	24.4	0.973
13	718	24.5	0.973
13	719	24.6	1.4948643607927
13	720	24.7	1.2667998369699
13	721	24.8	2.6359058389369
13	760	24.9	1.8110140964151
13	761	25	0.973
13	762	25.1	1.9041588607433
13	771	25.2	0.973
13	772	25.3	0.973
13	773	25.4	2.5672112297237
13	774	25.5	0.973
13	775	25.6	2.0438723723977
13	776	25.7	0.973
13	777	25.8	1.7031356211145
13	778	25.9	0.973
13	779	26	0.973
13	780	26.1	2.1221865328824
13	781	26.2	1.7656155901905
13	782	26.3	1.2548110538259
13	783	26.4	0.973
13	784	26.5	0.973
13	785	26.6	0.973
13	794	26.7	0.973
13	795	26.8	0.973
13	816	26.9	0.973
13	817	27	0.973
13	818	27.1	0.973
13	819	27.2	0.973
13	820	27.3	0.973
13	821	27.4	3.5101544387711
13	822	27.5	3.6865893148967
13	823	27.6	3.8631669661848
13	824	27.7	4.0398971345424
13	825	27.8	4.2167895618768
13	858	27.9	4.3938539900951
13	909	28	4.5711001611045
13	924	28.1	4.7485378168121
13	925	28.2	3.9333098303491
13	926	28.3	0.973
13	927	28.4	3.579742918535
13	928	28.5	3.9547472751562
13	929	28.6	3.8379180627717
13	930	28.7	4.1709886717079
13	931	28.8	4.2549278922926
13	932	28.9	4.3216721940835
13	933	29	3.8195480401023
13	934	29.1	3.7144560447903
13	935	29.2	5.5024448740236
13	936	29.3	4.4849068233549
13	993	29.4	5.6264642432739
13	994	29.5	5.3691933719784
13	995	29.6	4.5085673855989
13	996	29.7	6.5353792031626
13	1011	29.8	6.5711771861739
13	1012	29.9	4.4969385083881
13	1013	30	4.4524729541993
13	1014	30.1	4.6579890842827
13	1015	30.2	4.6015309127197
13	1016	30.3	6.2217325158465
13	1017	30.4	7.394001386947
13	1018	30.5	6.5023843299601
13	1019	30.6	6.2416103167912
13	1020	30.7	6.1542818502502
13	1021	30.8	6.7172338338398
13	1022	30.9	7.3581480775181
13	1023	31	6.8236591535629
13	1024	31.1	5.2078133518611
13	1039	31.2	5.2106665610403
13	1040	31.3	5.2424699938908
13	1041	31.4	8.475545219982
13	1042	31.5	6.8072508430626
13	1043	31.6	0.973
13	1044	31.7	0.973
13	1045	31.8	0.973
13	1046	31.9	0.973
13	1047	32	0.973
13	1048	32.1	0.973
13	1049	32.2	0.973
13	1050	32.3	0.973
13	1051	32.4	0.973
13	1052	32.5	0.973
13	1091	32.6	0.973
13	1092	32.7	0.973
13	1093	32.8	0.973
13	1114	32.9	0.973
13	1115	33	0.973
13	1148	33.1	0.973
13	1149	33.2	0.973
13	1150	33.3	0.973
13	1151	33.4	0.973
13	1152	33.5	0.973
13	1167	33.6	0.973
13	1168	33.7	0.973
13	1177	33.8	0.973
13	1178	33.9	0.973
13	1217	34	0.973
13	1218	34.1	0.973
13	1219	34.2	0.973
13	1276	34.3	0.973
13	1291	34.4	0.973
13	1292	34.5	0.973
13	1293	34.6	0.973
13	1294	34.7	0.973
13	1295	34.8	0.973
13	1296	34.9	0.973
13	1297	35	0.973
13	1298	35.1	0.973
13	1299	35.2	0.973
13	1300	35.3	0.973
13	1301	35.4	0.973
13	1302	35.5	0.973
13	1303	35.6	0.973
13	1304	35.7	0.973
13	1305	35.8	0.973
13	1306	35.9	0.973
13	1307	36	0.973
13	1308	36.1	0.973
13	1309	36.2	0.973
13	1310	36.3	0.973
13	1311	36.4	0.973
13	1312	36.5	0.973
13	1313	36.6	0.973
13	1314	36.7	0.973
13	1315	36.8	0.973
13	1316	36.9	0.973
13	1317	37	0.973
13	1318	37.1	0.973
13	1319	37.2	0.973
13	1320	37.3	0.973
13	1321	37.4	0.973
13	1322	37.5	0.973
13	1323	37.6	0.973
13	1324	37.7	0.973
13	1325	37.8	0.973
13	1326	37.9	0.973
13	1327	38	0.973
13	1328	38.1	0.973
13	1329	38.2	0.973
13	1330	38.3	0.973
13	1331	38.4	0.973
13	1332	38.5	1.1127371825228
13	1333	38.6	1.1128108509862
13	1366	38.7	0.973
13	1367	38.8	1.1123922702741
13	1424	38.9	1.1120722606745
13	1445	39	1.1118650758436
13	1446	39.1	1.111740608845
13	1479	39.2	1.111564289249
13	1480	39.3	1.1117509741103
13	1481	39.4	1.1114927324587
13	1482	39.5	1.1112995747695
13	1483	39.6	1.1112068642559
13	1484	39.7	1.111203130763
13	1485	39.8	1.1110732863605
13	1486	39.9	1.1110129640272
13	1487	40	1.1108876714575
13	1488	40.1	1.1108427917984
13	1489	40.2	1.1107409447098
13	1490	40.3	1.1106893300544
13	1491	40.4	1.1106267629752
13	1492	40.5	1.1105812820549
13	1531	40.6	1.1104910546391
13	1532	40.7	1.1104529548624
13	1553	40.8	1.1104174061223
13	1562	40.9	1.1103798806157
13	1563	41	1.1103481994451
13	1564	41.1	1.1103116634792
13	1603	41.2	1.1102803165204
13	1604	41.3	1.1102559012938
13	1605	41.4	1.1102361531405
13	1606	41.5	1.110211093554
13	1607	41.6	1.1101977592796
13	1608	41.7	1.1101759246938
13	1609	41.8	1.1101560633388
13	1610	41.9	1.1101472827742
13	1611	42	1.1101319280548
13	1644	42.1	1.1101146656162
13	1645	42.2	1.110105494818
13	1690	42.3	1.1100979197699
13	1691	42.4	1.110087579319
13	1692	42.5	1.1100762072136
13	1693	42.6	1.1100701209683
13	1720	42.7	1.1100633951696
13	1721	42.8	1.1100582109134
13	1722	42.9	1.110052691603
13	1723	43	1.1100464355762
13	1724	43.1	1.1100434415222
13	1725	43.2	1.1100387493546
13	1726	43.3	1.1100342055429
13	1727	43.4	1.1100306727905
13	1772	43.5	1.1100285883091
13	1799	43.6	1.1100249581417
13	1800	43.7	1.1100230703052
13	1801	43.8	1.1100202219603
13	1802	43.9	1.1100188268457
13	1803	44	1.1100169025034
13	1804	44.1	1.1100147991324
13	1805	44.2	1.1100136334375
13	1832	44.3	1.1100120767313
13	1833	44.4	1.1100109441719
13	1834	44.5	1.1100103082543
13	1835	44.6	1.1100089092817
13	1836	44.7	1.1100082457251
13	1837	44.8	1.1100073388872
13	1838	44.9	1.1100067777728
13	1839	45	1.1100062087315
13	1840	45.1	1.110005455083
13	1841	45.2	1.1100049645635
13	1842	45.3	1.1100044536124
13	1843	45.4	1.1100040080767
13	1844	45.5	1.1100036583171
13	1845	45.6	1.1100032148142
13	1846	45.7	1.1100030069442
13	1885	45.8	1.1100026398483
13	1886	45.9	1.1100024413883
13	1887	46	1.1100021988049
13	1888	46.1	1.1100019122241
13	2265	46.2	1.1100017515474
13	2266	46.3	1.1100016102365
13	2267	46.4	1.1100014644544
13	2268	46.5	1.1100012597423
13	2269	46.6	1.1100011699429
13	2270	46.7	1.110001066024
13	2271	46.8	1.1100009412784
13	2272	46.9	1.1100008549683
13	2273	47	1.1100007636755
13	2274	47.1	1.1100007044974
13	2275	47.2	1.1100006300776
13	2276	47.3	1.1100005825447
13	2277	47.4	1.1100005037964
13	2278	47.5	1.1100004606197
13	2279	47.6	1.1100004217358
13	2280	47.7	1.1100003713776
13	2281	47.8	1.1100003448017
13	2302	47.9	1.1100003005427
13	2311	48	1.110000274889
13	2312	48.1	1.1100002546828
13	2313	48.2	1.1100002200711
13	2314	48.3	1.1100002017357
13	2315	48.4	1.1100001889344
13	2316	48.5	1.1100001617826
13	2317	48.6	1.1100001525413
13	2318	48.7	1.1100001370822
13	2319	48.8	1.1100001237685
13	2320	48.9	1.1100001076659
13	2321	49	1.110000098166
13	2322	49.1	1.1100000914177
13	2323	49.2	1.110000079316
13	2324	49.3	1.1100000743547
13	2325	49.4	1.1100000647837
13	2358	49.5	1.1100000590906
13	2391	49.6	1.1100000531461
13	2392	49.7	1.1100000477723
13	2393	49.8	1.1100000444485
13	2394	49.9	1.1100000400209
13	2395	50	1.1100000352046
13	2396	50.1	1.110000032723
13	2397	50.2	1.1100000285155
13	2398	50.3	1.1100000264266
13	2399	50.4	1.110000024293
13	2444	50.5	1.1100000212533
13	2445	50.6	1.1100000191988
13	2446	50.7	1.1100000178308
13	2447	50.8	1.1100000161945
13	2448	50.9	1.1100000142788
13	2493	51	1.1100000129173
13	2494	51.1	1.1100000117649
13	2495	51.2	1.1100000105788
13	2496	51.3	1.110000009515
13	2497	51.4	1.1100000083317
13	2498	51.5	1.1100000077612
13	2543	51.6	1.1100000068041
13	2544	51.7	1.1100000061359
13	2583	51.8	1.1100000056302
13	2648	51.9	1.110000005168
13	2649	52	1.1100000045459
13	2650	52.1	1.273712230086
13	2651	52.2	1.4505181986848
13	2652	52.3	1.5599548338697
13	2653	52.4	1.7291697858535
13	2654	52.5	1.7771705809636
13	2655	52.6	1.8616407708302
13	2656	52.7	2.1140090723769
13	2657	52.8	2.2036968699579
13	2658	52.9	2.5285933609439
13	2659	53	2.5203916716968
13	2660	53.1	2.289707506978
13	2661	53.2	2.8684402988351
13	2662	53.3	2.4463057897266
13	2663	53.4	3.0274375049624
13	2664	53.5	2.6463319205551
13	2665	53.6	3.1244197156386
13	2666	53.7	2.5101994867725
13	2705	53.8	3.3728832167819
13	2706	53.9	2.6066511092932
13	2707	54	2.7319242977913
13	2708	54.1	3.4229422784012
13	2709	54.2	3.7415351718048
13	2710	54.3	2.985649988391
13	2711	54.4	3.5587520571511
13	2712	54.5	4.061927915118
13	2713	54.6	4.5514395968925
13	2714	54.7	4.448066026213
13	2715	54.8	3.2208883415475
13	2716	54.9	4.5798349787904
13	2717	55	3.4263197767998
13	2726	55.1	4.8153942270719
13	2727	55.2	5.1301824827374
13	2728	55.3	5.4657682629878
13	2729	55.4	4.3676593824979
13	2730	55.5	3.7886580500682
13	2731	55.6	4.3611878738565
13	2764	55.7	5.1970577261936
13	2809	55.8	6.1823989693876
13	2810	55.9	4.8424376956166
13	2811	56	4.1965262830646
13	2812	56.1	5.2747346970823
13	2813	56.2	5.5465369437779
13	2814	56.3	6.1976785216732
13	2815	56.4	5.5146596743276
13	2816	56.5	5.4692739394961
13	2855	56.6	5.6145989923662
13	2938	56.7	5.5174055648408
13	2939	56.8	7.2946070400062
13	2940	56.9	6.8214176842956
13	2941	57	5.8432824240066
13	2942	57.1	6.5083886372431
13	2943	57.2	5.4936597901068
13	2964	57.3	7.5651429220485
13	2965	57.4	7.0945518300495
13	2992	57.5	6.7713175515757
13	2993	57.6	7.1707945161049
13	2994	57.7	8.6204120753993
13	2995	57.8	7.0516012215118
13	2996	57.9	7.8031515903346
13	2997	58	5.8372225352372
13	2998	58.1	9.0673285695863
13	2999	58.2	7.2447843338377
13	3000	58.3	7.0869899072563
13	3001	58.4	7.463395084625
13	3002	58.5	9.8437141237293
13	3003	58.6	9.2315510219954
13	3004	58.7	10.200332271775
13	3005	58.8	7.63826556146
13	3006	58.9	7.0388156878527
13	3007	59	5.306937771825
13	3008	59.1	0.973
13	3009	59.2	3.7453137274146
13	3010	59.3	0.973
13	3011	59.4	2.0827876674847
13	3012	59.5	3.2585510429433
13	3013	59.6	0.973
13	3014	59.7	3.604386548709
13	3015	59.8	3.4705670417178
13	3016	59.9	0.973
13	3017	60	1.1000386707374
13	3018	60.1	3.7594208574193
13	3019	60.2	1.6683929515306
13	3020	60.3	1.2877785752268
13	3021	60.4	2.242270430357
13	3022	60.5	1.5677492670704
13	3023	60.6	0.973
13	3024	60.7	4.4100895747003
13	3025	60.8	0.973
13	3078	60.9	4.6348281315846
13	3079	61	1.5072993371959
13	3080	61.1	3.3293098948249
13	3081	61.2	0.973
13	3176	61.3	1.3233601406458
13	3177	61.4	2.7943781018927
13	3228	61.5	3.2860365196006
13	3229	61.6	2.5746283573773
13	3274	61.7	1.3093880079647
13	3325	61.8	3.0300672331273
13	3326	61.9	0.973
13	3327	62	2.3112702751632
13	3328	62.1	1.7325147660367
13	3337	62.2	0.973
13	3338	62.3	1.5073781394659
13	3339	62.4	4.1920779410604
13	3340	62.5	0.973
13	3341	62.6	1.9276150441047
13	3342	62.7	3.9038313163382
13	3343	62.8	1.5644073554775
13	3344	62.9	2.8365237693815
13	3345	63	1.770118442788
13	3346	63.1	0.973
13	3347	63.2	4.732343128358
13	3348	63.3	0.973
13	3349	63.4	3.9257286782328
13	3350	63.5	0.973
13	3351	63.6	1.4104187514305
13	3352	63.7	2.111860478874
13	3353	63.8	3.4125056240364
13	3398	63.9	0.973
13	3437	64	1.6943558800858
13	3438	64.1	2.322328025287
13	3477	64.2	2.8574250443624
13	3478	64.3	3.181196805305
13	3479	64.4	0.973
13	3480	64.5	0.973
13	3481	64.6	4.4473374926457
13	3482	64.7	0.973
13	3483	64.8	0.973
13	3484	64.9	4.7763026074652
13	3485	65	1.279441882644
13	3486	65.1	1.4313702851102
13	3487	65.2	1.2800904446488
13	3488	65.3	3.9787726474761
13	3489	65.4	0.973
13	3490	65.5	1.172071444814
13	3491	65.6	1.6446245641106
13	3492	65.7	2.7872398226544
13	3493	65.8	3.2308673144649
13	3544	65.9	0.973
13	3545	66	3.8797123944621
13	3546	66.1	3.527903889035
13	3597	66.2	2.621283205249
13	3642	66.3	0.973
13	3643	66.4	2.8382804269112
13	3644	66.5	2.4753979723763
13	3645	66.6	4.8658468826226
13	3646	66.7	0.973
13	3697	66.8	2.6729087482247
13	3748	66.9	2.7964256843536
13	3749	67	1.5878725185728
13	3750	67.1	2.8030891877954
13	3751	67.2	0.973
13	3752	67.3	2.7686818472648
13	3753	67.4	1.8702456601228
13	3754	67.5	2.1811610087561
13	3811	67.6	1.5772124405943
13	3812	67.7	2.733775039999
13	3869	67.8	2.6034088943349
13	3870	67.9	1.6172950073157
13	3897	68	1.3411892714364
13	3898	68.1	0.973
13	3899	68.2	3.6135493011597
13	3900	68.3	1.7241223640456
13	3901	68.4	1.1650185265408
13	3902	68.5	4.7254757099209
13	3903	68.6	0.973
13	3904	68.7	3.4029774216689
13	3905	68.8	0.973
13	3906	68.9	2.0008131717375
13	3907	69	3.5283769322969
13	3908	69.1	0.973
13	3909	69.2	3.2316407948108
13	3918	69.3	2.1855259379461
13	3919	69.4	2.6888148374672
13	3928	69.5	0.973
13	3929	69.6	4.8270970924586
13	3930	69.7	2.5500783335315
13	3931	69.8	2.8936108478916
13	3932	69.9	0.973
13	3977	70	2.0963531126158
13	4022	70.1	2.0354734606336
13	4023	70.2	0.973
13	4024	70.3	2.6329036013903
13	4025	70.4	4.6227793024144
13	4058	70.5	0.973
13	4059	70.6	5.567228691301
13	4060	70.7	0.973
13	4061	70.8	3.833510283247
13	4106	70.9	0.973
13	4107	71	3.0050445384001
13	4108	71.1	3.3918477010261
13	4109	71.2	3.103957495391
13	4110	71.3	0.973
13	4111	71.4	1.847899983545
13	4112	71.5	1.5275410070112
13	4113	71.6	4.7094862448675
13	4114	71.7	0.973
13	4115	71.8	2.5627729735516
13	4116	71.9	2.3421432007542
13	4117	72	4.1680086465521
13	4118	72.1	0.973
13	4119	72.2	2.9509309548582
13	4152	72.3	4.5897168652403
13	4153	72.4	0.973
13	4154	72.5	3.2518839019517
13	4155	72.6	0.973
13	4200	72.7	0.973
13	4201	72.8	0.973
13	4202	72.9	0.973
13	4247	73	0.973
13	4248	73.1	0.973
13	4249	73.2	0.973
13	4250	73.3	0.973
13	4251	73.4	0.973
13	4252	73.5	0.973
13	4253	73.6	0.973
13	4254	73.7	0.973
13	4255	73.8	0.973
13	4256	73.9	0.973
13	4257	74	0.973
13	4258	74.1	0.973
13	4259	74.2	0.973
13	4260	74.3	0.973
13	4261	74.4	0.973
13	4262	74.5	0.973
13	4263	74.6	0.973
13	4264	74.7	0.973
13	4265	74.8	0.973
13	4266	74.9	0.973
13	4267	75	0.973
13	4269	75.1	0.973
13	4270	75.2	0.973
13	4271	75.3	0.973
13	4272	75.4	0.973
13	4273	75.5	0.973
13	4274	75.6	0.973
13	4313	75.7	0.973
13	4314	75.8	0.973
13	4315	75.9	0.973
13	4316	76	0.973
13	4317	76.1	0.973
13	4368	76.2	3.6249595204246
13	4369	76.3	3.8014862051955
13	4378	76.4	3.9781620049959
13	4379	76.5	3.138105029326
13	4380	76.6	4.2707592162206
13	4381	76.7	4.4478780268933
13	4382	76.8	4.6251815507409
13	4383	76.9	4.8026795296704
13	4384	77	4.9803817055892
13	4385	77.1	4.6910880376111
13	4386	77.2	3.5887611164173
13	4431	77.3	5.0529251350819
13	4432	77.4	3.6138518781701
13	4433	77.5	4.657536849832
13	4434	77.6	3.426687580243
13	4473	77.7	0.973
13	4474	77.8	0.973
13	4513	77.9	0.973
13	4790	78	0.973
13	4791	78.1	0.973
13	4792	78.2	2.2386195279782
13	4825	78.3	1.6753501467293
13	4826	78.4	0.973
13	4827	78.5	2.0636793881723
13	4828	78.6	1.4773488999646
13	4829	78.7	0.973
13	4830	78.8	0.973
13	4831	78.9	1.7067524509954
13	4832	79	1.2894407418704
13	4833	79.1	0.973
13	4834	79.2	1.4365155383581
13	4835	79.3	2.6907773838244
13	4836	79.4	0.973
13	4881	79.5	1.4718570694024
13	4882	79.6	1.7618811911194
13	4917	79.7	0.973
13	4918	79.8	2.2736833935034
13	4919	79.9	0.973
13	4920	80	0.973
13	4921	80.1	2.0427728473491
13	4922	80.2	1.3243131344722
13	4923	80.3	1.6307509438741
13	4924	80.4	1.6932457571239
13	4925	80.5	0.973
13	4926	80.6	2.0765992231892
13	4927	80.7	0.973
13	4928	80.8	2.6295766571038
13	4929	80.9	0.973
13	4930	81	2.2480413187848
13	4981	81.1	0.973
13	4982	81.2	1.5888366675966
13	4983	81.3	1.6603461698578
13	4984	81.4	1.5366196276718
13	4985	81.5	0.973
13	4986	81.6	1.9657156316495
13	4987	81.7	2.3277997752779
13	4988	81.8	0.973
13	5033	81.9	1.4842712955444
13	5034	82	1.7304049964606
13	5035	82.1	1.3214933949151
13	5036	82.2	1.7977451112371
13	5037	82.3	1.4344945732522
13	5038	82.4	0.973
13	5121	82.5	1.5751615943648
13	5122	82.6	1.8126681122735
13	5123	82.7	2.0879310097235
13	5168	82.8	0.973
13	5169	82.9	1.9717719390888
13	5170	83	1.5524753761675
13	5171	83.1	1.4259434487891
13	5172	83.2	0.973
13	5173	83.3	1.9940381231373
13	5174	83.4	1.2137606700512
13	5189	83.5	0.973
13	5190	83.6	1.8736881772005
13	5191	83.7	1.9867236863481
13	5242	83.8	1.5045977547653
13	5243	83.9	0.973
13	5244	84	0.973
13	5245	84.1	1.8100046406831
13	5246	84.2	1.9849844700306
13	5279	84.3	0.973
13	5280	84.4	2.1121053180577
13	5281	84.5	0.973
13	5282	84.6	1.9362074400782
13	5283	84.7	0.973
13	5284	84.8	1.3757697872089
13	5285	84.9	2.2852858007047
13	5286	85	0.973
13	5287	85.1	0.973
13	5288	85.2	1.5660368174987
13	5289	85.3	1.5038368915518
13	5290	85.4	1.6883310513814
13	5291	85.5	1.3062588118795
13	5292	85.6	1.616076572256
13	5293	85.7	1.4571471949853
13	5332	85.8	0.973
13	5333	85.9	1.4580676988089
13	5334	86	2.5690824127444
13	5343	86.1	0.973
13	5376	86.2	2.1563000873758
13	5377	86.3	0.973
13	5378	86.4	2.3026064684325
13	5379	86.5	0.973
13	5380	86.6	1.4699749016268
13	5431	86.7	1.4652338910621
13	5432	86.8	0.973
13	5433	86.9	1.8189917007968
13	5434	87	0.973
13	5474	87.1	2.6085939309503
13	5475	87.2	0.973
13	5476	87.3	0.973
13	5477	87.4	1.6368364055275
13	5478	87.5	0.973
13	5529	87.6	2.3261781343384
13	5530	87.7	1.2495583641909
13	5581	87.8	2.1372182620991
13	5582	87.9	1.308890001854
13	5583	88	0.973
13	5584	88.1	1.4116825287106
13	5585	88.2	1.2441090590396
13	5586	88.3	2.6284836171037
13	5587	88.4	1.4506370194987
13	5588	88.5	0.973
13	5589	88.6	0.973
13	5590	88.7	1.291740728278
13	5591	88.8	1.9370198489732
13	5642	88.9	2.2550807508193
13	5643	89	0.973
13	5644	89.1	2.8282815144652
13	5645	89.2	0.973
13	5702	89.3	0.973
13	5703	89.4	1.3425353732427
13	5704	89.5	1.467452100423
13	5705	89.6	1.8184694585962
13	5706	89.7	0.973
13	5707	89.8	1.4555961216614
13	5752	89.9	1.224479891795
13	5753	90	0.973
13	5754	90.1	1.7564090368747
13	5755	90.2	1.6494811887455
13	5756	90.3	0.973
13	5757	90.4	1.6711721218654
13	5758	90.5	0.973
13	5797	90.6	1.9341808844286
13	5798	90.7	1.7949347999129
13	5799	90.8	0.973
13	5800	90.9	1.7964903758404
13	5801	91	0.973
13	5802	91.1	2.2478940831579
13	5803	91.2	1.6789375515231
13	5836	91.3	1.6039234109586
12	40	2.3	2.4777397813476
12	41	2.4	2.4512885773154
12	42	2.5	2.1809804627107
12	43	2.6	2.3941136606723
12	44	2.7	2.1268818289131
12	45	2.8	2.2920502375518
12	46	2.9	1.6898664032656
12	47	3	2.4546854435278
12	48	3.1	1.5923508903848
12	63	3.2	2.0138064404013
12	64	3.3	2.0000768283615
12	65	3.4	1.71745660624
12	66	3.5	1.7681026779115
12	67	3.6	1.9014148032991
12	68	3.7	1.9215971733676
12	69	3.8	1.9843194504501
12	70	3.9	1.5934962075437
12	71	4	2.318484536279
12	72	4.1	2.5755732625723
12	81	4.2	2.4054226770764
12	82	4.3	2.0975643285317
12	83	4.4	2.0150650135707
12	84	4.5	1.4269468483282
12	85	4.6	1.3392482108204
12	86	4.7	2.3778175380314
12	87	4.8	1.0133400654376
12	88	4.9	0.5533305847086
12	89	5	-0.40199487328064
12	90	5.1	-0.024071145523337
12	99	5.2	-0.44526202066336
12	100	5.3	0.68768543063197
12	101	5.4	0.16679410189391
12	102	5.5	0.2597720684018
12	103	5.6	-0.6816470941063
12	104	5.7	-0.22804345020559
12	105	5.8	-0.052323130448348
12	106	5.9	0.35535233570262
12	107	6	0.2120749755064
12	108	6.1	0.18924193882849
12	117	6.2	-0.75963640201372
12	118	6.3	0.40987313576043
12	119	6.4	-0.45699431821704
12	120	6.5	0.83070571031421
12	121	6.6	-0.48029224690981
12	122	6.7	0.32415940300561
12	123	6.8	0.036416452680719
12	124	6.9	-0.43410794057418
12	125	7	-0.068080233829102
12	126	7.1	0.15234129466116
12	141	7.2	-0.26973386174068
12	142	7.3	0.56496508156415
12	143	7.4	-0.61088978303596
12	144	7.5	0.45308784022928
12	145	7.6	-0.095143054751681
12	146	7.7	0.4139228769578
12	147	7.8	0.19827201582957
12	148	7.9	-0.54124484246131
12	149	8	0.15651716678404
12	150	8.1	-0.71841094121337
12	165	8.2	1.1489599535009
12	166	8.3	-0.063987843529318
12	167	8.4	0.033316818950695
12	168	8.5	-0.36837230985984
12	169	8.6	-0.40933399971109
12	170	8.7	0.92344398072455
12	171	8.8	-0.66211927796248
12	172	8.9	-0.35445942927618
12	173	9	0.11606829406228
12	174	9.1	0.16534155830741
12	183	9.2	-0.37316871439107
12	184	9.3	0.85076899493579
12	185	9.4	-0.9885108100716
12	186	9.5	0.85597305048722
12	187	9.6	-0.70566301811486
12	188	9.7	-0.054675019369457
12	189	9.8	0.05856753155645
12	190	9.9	-3.1493596794561
12	191	10	-2.2332049923388
12	192	10.1	-2.1744186325849
12	213	10.2	-3.3182019221719
12	214	10.3	-1.8911265805175
12	215	10.4	-2.2404831294578
12	216	10.5	-2.4089277649865
12	217	10.6	-1.0068746568886
12	218	10.7	-3.0269313330475
12	219	10.8	2.6
12	220	10.9	2.6
12	221	11	2.6
12	222	11.1	2.6
12	223	11.2	2.3473551146453
12	224	11.3	2.6
12	225	11.4	2.6
12	226	11.5	2.6
12	227	11.6	2.0092787226073
12	228	11.7	-0.69350537911523
12	229	11.8	-0.36004594441037
12	230	11.9	0.9280368248932
12	231	12	-0.47055442121345
12	232	12.1	-0.47886255807244
12	259	12.2	-0.026526433811522
12	260	12.3	0.61934927161783
12	261	12.4	-0.12823915684129
12	262	12.5	0.56437662988901
12	263	12.6	-0.65501950893085
12	264	12.7	-0.005957063660027
12	265	12.8	0.5854504483752
12	266	12.9	-0.70538208219223
12	267	13	0.17242371893953
12	268	13.1	-0.41254160115495
12	269	13.2	-0.16708946777507
12	270	13.3	-0.012590814405122
12	271	13.4	0.54952063919045
12	272	13.5	0.27244574595243
12	273	13.6	-0.42007041370962
12	274	13.7	0.82913447627798
12	275	13.8	-0.3874408468837
12	276	13.9	-0.61511683287099
12	277	14	-0.1867380495416
12	278	14.1	0.6656288882019
12	299	14.2	-0.044494523806495
12	300	14.3	0.42643061482813
12	301	14.4	-0.34343080997933
12	302	14.5	0.079082330502569
12	303	14.6	-0.035705413250255
12	304	14.7	0.0040142758982231
12	325	14.8	-0.34185548583046
12	326	14.9	-0.45306087448261
12	327	15	0.9681463584071
12	328	15.1	-0.8742693586275
12	337	15.2	0.72605129855219
12	338	15.3	-0.024613267206588
12	339	15.4	-0.37771681370214
12	340	15.5	0.82048626651522
12	341	15.6	-0.54291059342213
12	342	15.7	-0.35069108104799
12	343	15.8	-0.1801126963459
12	344	15.9	0.055871491879227
12	345	16	-0.046779270772825
12	346	16.1	-0.058449974795805
12	373	16.2	1.0774521296145
12	374	16.3	-0.69826965206303
12	375	16.4	0.28444160046056
12	376	16.5	-0.09549144953489
12	377	16.6	-0.27861300532241
12	378	16.7	0.44177516044583
12	379	16.8	-0.15929373004473
12	380	16.9	0.51248584156856
12	381	17	-1.1951782989083
12	382	17.1	0.90519559497479
12	415	17.2	-0.88419888992794
12	416	17.3	0.3692256175913
12	417	17.4	-0.31176509773359
12	418	17.5	1.0130454001948
12	419	17.6	-0.34330606018193
12	434	17.7	-0.20218360547442
12	435	17.8	0.0078817378496776
12	436	17.9	-2.1894269840468
12	437	18	-2.7517917148862
12	438	18.1	-1.5774742337852
12	483	18.2	-2.593040126915
12	484	18.3	-3.2596881763348
12	485	18.4	-1.5637735650578
12	530	18.5	-1.9413093114828
12	531	18.6	-2.8962283126566
12	532	18.7	-2.2677295159124
12	533	18.8	2.6
12	534	18.9	2.6
12	535	19	2.6
12	536	19.1	2.6
12	581	19.2	2.6
12	582	19.3	2.6
12	609	19.4	2.6
12	610	19.5	2.6
12	611	19.6	0.93058010550698
12	612	19.7	-0.67227846002206
12	613	19.8	0.0019486076896946
12	614	19.9	0.0071634480264038
12	615	20	0.47102466945071
12	616	20.1	-0.073151941411194
12	617	20.2	-0.74763958589174
12	618	20.3	-0.55440640707095
12	627	20.4	-3.1824954992515
12	628	20.5	-2.3106976159709
12	629	20.6	-1.9295261205878
12	630	20.7	-2.8510763732153
12	631	20.8	-1.9702401651619
12	632	20.9	-1.9128145713087
12	633	21	-3.1658585568717
12	634	21.1	-1.421516079583
12	635	21.2	-1.5214259587268
12	636	21.3	2.6
12	637	21.4	2.6
12	638	21.5	2.6
12	639	21.6	2.6
12	640	21.7	2.6
12	641	21.8	2.6
12	642	21.9	2.2979019066319
12	643	22	2.6
12	644	22.1	1.3350887032749
12	645	22.2	-0.33294793453533
12	646	22.3	-0.55809148247354
12	647	22.4	0.89017593681347
12	648	22.5	-0.94875799140428
12	649	22.6	0.038509136275389
12	650	22.7	0.22737610593904
12	651	22.8	-0.59690505140461
12	652	22.9	0.79268572039436
12	653	23	-0.6193955988856
12	654	23.1	0.34920048061759
12	655	23.2	0.175249298173
12	656	23.3	0.22325673082378
12	707	23.4	-0.85227930708789
12	708	23.5	0.051404637284582
12	709	23.6	0.96255128257908
12	710	23.7	-0.73837757774163
12	711	23.8	0.0016701915767037
12	712	23.9	0.56194373657926
12	713	24	-0.34077235662844
12	714	24.1	-0.3047523930436
12	715	24.2	0.86405626535416
12	716	24.3	-0.20762727812398
12	717	24.4	-0.45940664049703
12	718	24.5	-0.44205790942069
12	719	24.6	0.081938529433678
12	720	24.7	-0.091718737874178
12	721	24.8	0.93388784558046
12	760	24.9	0.31141807348468
12	761	25	-0.48464284127113
12	762	25.1	0.38210566225462
12	771	25.2	-0.71343760003802
12	772	25.3	-0.3042598085478
12	773	25.4	0.88085201368668
12	774	25.5	-0.25343422987499
12	775	25.6	0.48538139702287
12	776	25.7	-0.34945787258912
12	777	25.8	0.23192049530334
12	778	25.9	-0.20864785036538
12	779	26	-0.84434981090017
12	780	26.1	0.55262545328588
12	781	26.2	0.28072167676873
12	782	26.3	-0.10281113120727
12	783	26.4	-1.4937731476924
12	784	26.5	-1.9442242971089
12	785	26.6	-3.3411088475632
12	794	26.7	-2.036772737085
12	795	26.8	-2.6576317540064
12	816	26.9	-1.7920864322646
12	817	27	-3.0952935219523
12	818	27.1	-1.8487512285998
12	819	27.2	-1.2692790951772
12	820	27.3	-2.7408731170945
12	821	27.4	2.6
12	822	27.5	2.6
12	823	27.6	2.6
12	824	27.7	2.6
12	825	27.8	2.6
12	858	27.9	2.6
12	909	28	2.6
12	924	28.1	2.6
12	925	28.2	1.8949949132274
12	926	28.3	-0.6702738184249
12	927	28.4	1.6004047319526
12	928	28.5	1.8100800075335
12	929	28.6	1.6721669055754
12	930	28.7	1.8386834279634
12	931	28.8	1.8333746385295
12	932	28.9	1.817886642646
12	933	29	1.4616000483977
12	934	29.1	1.363567066798
12	935	29.2	2.3590931994375
12	936	29.3	1.7139484655112
12	993	29.4	2.2876199794235
12	994	29.5	2.0793893738184
12	995	29.6	1.5763129164232
12	996	29.7	2.5573913250351
12	1011	29.8	2.4905302538071
12	1012	29.9	1.4291221916675
12	1013	30	1.3802831037901
12	1014	30.1	1.4499913301785
12	1015	30.2	1.3963988061994
12	1016	30.3	2.0951668847818
12	1017	30.4	2.5492100276751
12	1018	30.5	2.1004448732128
12	1019	30.6	1.9418812278193
12	1020	30.7	1.8633298576809
12	1021	30.8	2.0491883244598
12	1022	30.9	2.2537184892688
12	1023	31	1.9956580829108
12	1024	31.1	1.341334290849
12	1039	31.2	1.3220223172102
12	1040	31.3	1.3141854991671
12	1041	31.4	2.4718487168662
12	1042	31.5	1.8205442439532
12	1043	31.6	-0.5431065426
12	1044	31.7	-3.3821063645225
12	1045	31.8	-3.1403315195983
[...]
86	1645	42.2	7243.7183240506
86	1690	42.3	7241.9439019301
86	1691	42.4	7240.1624959676
86	1692	42.5	7238.3872212146
86	1693	42.6	7236.6122364305
86	1720	42.7	7234.8321950719
86	1721	42.8	7233.05659858
86	1722	42.9	7231.2710337948
86	1723	43	7229.4857965857
86	1724	43.1	7227.7027418048
86	1725	43.2	7225.9223965525
86	1726	43.3	7224.1438300531
86	1727	43.4	7222.3693599411
86	1772	43.5	7220.5889186005
86	1799	43.6	7218.8024914305
86	1800	43.7	7217.0164090711
86	1801	43.8	7215.2413137214
86	1802	43.9	7213.4544350801
86	1803	44	7211.6764522502
86	1804	44.1	7209.8923068545
86	1805	44.2	7208.1104738824
86	1832	44.3	7206.33208354
86	1833	44.4	7204.5504591778
86	1834	44.5	7202.7719042853
86	1835	44.6	7200.996377695
86	1836	44.7	7199.2107974125
86	1837	44.8	7197.4260413657
86	1838	44.9	7195.6487217158
86	1839	45	7193.8681898837
86	1840	45.1	7192.0912747122
86	1841	45.2	7190.312000715
86	1842	45.3	7188.5353545416
86	1843	45.4	7186.749823076
86	1844	45.5	7184.9745054556
86	1845	45.6	7183.1962298561
86	1846	45.7	7181.4218638673
86	1885	45.8	7179.6372287613
86	1886	45.9	7177.850426551
86	1887	46	7176.0656940389
86	1888	46.1	7174.2846778775
86	2265	46.2	7172.4983031314
86	2266	46.3	7170.716352366
86	2267	46.4	7168.9339867096
86	2268	46.5	7167.1522848591
86	2269	46.6	7165.3702129128
86	2270	46.7	7163.5863785861
86	2271	46.8	7161.8096346459
86	2272	46.9	7160.0235752207
86	2273	47	7158.2444551133
86	2274	47.1	7156.4597475202
86	2275	47.2	7154.6801305584
86	2276	47.3	7152.898000758
86	2277	47.4	7151.1125606271
86	2278	47.5	7149.3364457742
86	2279	47.6	7147.5516965106
86	2280	47.7	7145.7658484797
86	2281	47.8	7143.9828459917
86	2302	47.9	7142.1989553144
86	2311	48	7140.4192555714
86	2312	48.1	7138.642168737
86	2313	48.2	7136.8635863405
86	2314	48.3	7135.085119477
86	2315	48.4	7133.298935728
86	2316	48.5	7131.51674882
86	2317	48.6	7129.7318368281
86	2318	48.7	7127.9555453019
86	2319	48.8	7126.1685690843
86	2320	48.9	7124.3841061968
86	2321	49	7122.5974109684
86	2322	49.1	7120.8204177571
86	2323	49.2	7119.0341556386
86	2324	49.3	7117.2471238673
86	2325	49.4	7115.4685413183
86	2358	49.5	7113.6914674808
86	2391	49.6	7111.9068733759
86	2392	49.7	7110.1280755574
86	2393	49.8	7108.352666793
86	2394	49.9	7106.566848818
86	2395	50	7104.7836391699
86	2396	50.1	7103.002047432
86	2397	50.2	7101.2279824172
86	2398	50.3	7099.4525578736
86	2399	50.4	7097.6701019921
86	2444	50.5	7095.8891686194
86	2445	50.6	7094.1122737523
86	2446	50.7	7092.3288388641
86	2447	50.8	7090.5522216493
86	2448	50.9	7088.7689132309
86	2493	51	7086.9909170058
86	2494	51.1	7085.2140424858
86	2495	51.2	7083.4366044426
86	2496	51.3	7081.661583491
86	2497	51.4	7079.8834453392
86	2498	51.5	7078.106292697
86	2543	51.6	7076.3308888658
86	2544	51.7	7074.5517928481
86	2583	51.8	7072.764774906
86	2648	51.9	7070.985727927
86	2649	52	7069.2017878257
86	2650	52.1	7067.4171536347
86	2651	52.2	7065.6339963315
86	2652	52.3	7063.849922615
86	2653	52.4	7062.0733307785
86	2654	52.5	7060.2887837838
86	2655	52.6	7058.5032117001
86	2656	52.7	7056.7174191468
86	2657	52.8	7054.9360389666
86	2658	52.9	7053.1584607497
86	2659	53	7051.3723694358
86	2660	53.1	7049.5906332065
86	2661	53.2	7047.8129949558
86	2662	53.3	7046.0293588694
86	2663	53.4	7044.2476012019
86	2664	53.5	7042.4619140718
86	2665	53.6	7040.68235963
86	2666	53.7	7038.8999971786
86	2705	53.8	7037.123034012
86	2706	53.9	7035.3372287964
86	2707	54	7033.5527255267
86	2708	54.1	7031.7657009568
86	2709	54.2	7029.983700429
86	2710	54.3	7028.1990381588
86	2711	54.4	7026.4159636678
86	2712	54.5	7024.631008859
86	2713	54.6	7022.8496304057
86	2714	54.7	7021.0675576083
86	2715	54.8	7019.2922500304
86	2716	54.9	7017.5174491396
86	2717	55	7015.7321582166
86	2726	55.1	7013.9568534729
86	2727	55.2	7012.1825246717
86	2728	55.3	7010.4051105954
86	2729	55.4	7008.6206584209
86	2730	55.5	7006.8387274933
86	2731	55.6	7005.0614535409
86	2764	55.7	7003.2764841871
86	2809	55.8	7001.4961830134
86	2810	55.9	6999.7142128653
86	2811	56	6997.9326136305
86	2812	56.1	6996.1475767499
86	2813	56.2	6994.371231858
86	2814	56.3	6992.590686742
86	2815	56.4	6990.8154247293
86	2816	56.5	6989.0353995172
86	2855	56.6	6987.2588984425
86	2938	56.7	6985.4828369489
86	2939	56.8	6983.7014729234
86	2940	56.9	6981.9180628439
86	2941	57	6980.1351163214
86	2942	57.1	6978.3520818527
86	2943	57.2	6976.5670076798
86	2964	57.3	6974.7866629039
86	2965	57.4	6973.0037951752
86	2992	57.5	6971.2172447881
86	2993	57.6	6969.4372736445
86	2994	57.7	6967.6595782371
86	2995	57.8	6965.8848921238
86	2996	57.9	6964.1001158879
86	2997	58	6962.3138308266
86	2998	58.1	6960.5313149165
86	2999	58.2	6958.7487999527
86	3000	58.3	6956.9644333335
86	3001	58.4	6955.1805982657
86	3002	58.5	6953.3993539995
86	3003	58.6	6951.6204251305
86	3004	58.7	6949.8335458506
86	3005	58.8	6948.0520261435
86	3006	58.9	6946.2774521008
86	3007	59	6944.5021196604
86	3008	59.1	6942.7185905325
86	3009	59.2	6940.9376616115
86	3010	59.3	6939.1562059528
86	3011	59.4	6937.3704943032
86	3012	59.5	6935.5943043915
86	3013	59.6	6933.8168121174
86	3014	59.7	6932.0315112446
86	3015	59.8	6930.2475274668
86	3016	59.9	6928.4646053275
86	3017	60	6926.6882498095
86	3018	60.1	6924.9103110681
86	3019	60.2	6923.1298805776
86	3020	60.3	6921.3443233919
86	3021	60.4	6919.5693731886
86	3022	60.5	6917.7857233277
86	3023	60.6	6916.0053448454
86	3024	60.7	6914.2278438388
86	3025	60.8	6912.4532866446
86	3078	60.9	6910.6718787723
86	3079	61	6908.8941058839
86	3080	61.1	6907.1108798577
86	3081	61.2	6905.3313930938
86	3176	61.3	6903.5507807217
86	3177	61.4	6901.7742157719
86	3228	61.5	6899.9997820866
86	3229	61.6	6898.2238216061
86	3274	61.7	6896.4416079021
86	3325	61.8	6894.6600051475
86	3326	61.9	6892.8746948038
86	3327	62	6891.0884338854
86	3328	62.1	6889.3078776041
86	3337	62.2	6887.5250019038
86	3338	62.3	6885.7444771643
86	3339	62.4	6883.9670900006
86	3340	62.5	6882.1895172495
86	3341	62.6	6880.4121172784
86	3342	62.7	6878.6303983249
86	3343	62.8	6876.8480747237
86	3344	62.9	6875.0724649729
86	3345	63	6873.292821862
86	3346	63.1	6871.5113340432
86	3347	63.2	6869.7362455752
86	3348	63.3	6867.9550775255
86	3349	63.4	6866.1694611821
86	3350	63.5	6864.3921169666
86	3351	63.6	6862.6117043947
86	3352	63.7	6860.8268702256
86	3353	63.8	6859.0413818225
86	3398	63.9	6857.2604176762
86	3437	64	6855.4812859707
86	3438	64.1	6853.7053952297
86	3477	64.2	6851.9225563245
86	3478	64.3	6850.1478294473
86	3479	64.4	6848.3661480652
86	3480	64.5	6846.5858645531
86	3481	64.6	6844.8057562875
86	3482	64.7	6843.0202039007
86	3483	64.8	6841.239094809
86	3484	64.9	6839.4626616338
86	3485	65	6837.680108958
86	3486	65.1	6835.9020159928
86	3487	65.2	6834.1101073634
86	3488	65.3	6832.3329083349
86	3489	65.4	6830.5520377222
86	3490	65.5	6828.7713882143
86	3491	65.6	6826.9912261748
86	3492	65.7	6825.2124556184
86	3493	65.8	6823.4356021178
86	3544	65.9	6821.656035361
86	3545	66	6819.8799712895
86	3546	66.1	6818.1018566646
86	3597	66.2	6816.3183665789
86	3642	66.3	6814.5335497338
86	3643	66.4	6812.750832261
86	3644	66.5	6810.9687261825
86	3645	66.6	6809.1842420213
86	3646	66.7	6807.40964774
86	3697	66.8	6805.6242604388
86	3748	66.9	6803.8465983354
86	3749	67	6802.0724302215
86	3750	67.1	6800.2951634945
86	3751	67.2	6798.5216502435
86	3752	67.3	6796.7393601694
86	3753	67.4	6794.9634384148
86	3754	67.5	6793.1872196932
86	3811	67.6	6791.4117536997
86	3812	67.7	6789.6376866436
86	3869	67.8	6787.8582536347
86	3870	67.9	6786.0767204386
86	3897	68	6784.2915193683
86	3898	68.1	6782.5170018148
86	3899	68.2	6780.7377619372
86	3900	68.3	6778.9541766637
86	3901	68.4	6777.1697471022
86	3902	68.5	6775.3877188941
86	3903	68.6	6773.6022786855
86	3904	68.7	6771.8246452442
86	3905	68.8	6770.0428474605
86	3906	68.9	6768.2610155919
86	3907	69	6766.4871227901
86	3908	69.1	6764.7108317406
86	3909	69.2	6762.9411658817
86	3918	69.3	6761.1707393926
86	3919	69.4	6759.4083909016
86	3928	69.5	6757.6384857988
86	3929	69.6	6755.8667689287
86	3930	69.7	6754.0920211918
86	3931	69.8	6752.316336113
86	3932	69.9	6750.5293286395
86	3977	70	6748.7466510595
86	4022	70.1	6746.9615751792
86	4023	70.2	6745.1715153099
86	4024	70.3	6743.3881351574
86	4025	70.4	6741.6030517699
86	4058	70.5	6739.8213023888
86	4059	70.6	6738.0290826068
86	4060	70.7	6736.2488736848
86	4061	70.8	6734.4695086344
86	4106	70.9	6732.6866576827
86	4107	71	6730.90488108
86	4108	71.1	6729.1229761265
86	4109	71.2	6727.3420639141
86	4110	71.3	6725.5550031345
86	4111	71.4	6723.7730421738
86	4112	71.5	6721.9897718696
86	4113	71.6	6720.2090417059
86	4114	71.7	6718.4340411419
86	4115	71.8	6716.6555471667
86	4116	71.9	6714.8773429922
86	4117	72	6713.0894587723
86	4118	72.1	6711.3100069273
86	4119	72.2	6709.5275972792
86	4152	72.3	6707.7516798084
86	4153	72.4	6705.9676842729
86	4154	72.5	6704.1783593512
86	4155	72.6	6702.3972947557
86	4200	72.7	6700.6076285676
86	4201	72.8	6698.8279821394
86	4202	72.9	6697.0452057168
86	4247	73	6695.2650804426
86	4248	73.1	6693.4884981095
86	4249	73.2	6691.7106661242
86	4250	73.3	6689.9242720108
86	4251	73.4	6688.1452532475
86	4252	73.5	6686.3690316348
86	4253	73.6	6684.5855585294
86	4254	73.7	6682.7983383094
86	4255	73.8	6681.0087535003
86	4256	73.9	6679.2213913905
86	4257	74	6677.4409622236
86	4258	74.1	6675.6551071633
86	4259	74.2	6673.870104939
86	4260	74.3	6672.0928800892
86	4261	74.4	6670.3075081849
86	4262	74.5	6668.5203678628
86	4263	74.6	6666.7346634416
86	4264	74.7	6664.9555679698
86	4265	74.8	6663.1779686609
86	4266	74.9	6661.3907286576
86	4267	75	6659.6129635373
86	4269	75.1	6657.8328992996
86	4270	75.2	6656.0462608909
86	4271	75.3	6654.26255612
86	4272	75.4	6652.4826559779
86	4273	75.5	6650.6954101788
86	4274	75.6	6648.9082141101
86	4313	75.7	6647.1330912827
86	4314	75.8	6645.34525728
86	4315	75.9	6643.5606626973
86	4316	76	6641.7852068929
86	4317	76.1	6640.007426007
86	4368	76.2	6638.231899206
86	4369	76.3	6636.4531368726
86	4378	76.4	6634.6656749141
86	4379	76.5	6632.8894598161
86	4380	76.6	6631.1135926999
86	4381	76.7	6629.3366813479
86	4382	76.8	6627.549336614
86	4383	76.9	6625.7723737375
86	4384	77	6623.9931894135
86	4385	77.1	6622.2062042906
86	4386	77.2	6620.4220487296
86	4431	77.3	6618.6432129753
86	4432	77.4	6616.8599962766
86	4433	77.5	6615.0802574306
86	4434	77.6	6613.3062044004
86	4473	77.7	6611.5244801028
86	4474	77.8	6609.7440040313
86	4513	77.9	6607.9660686216
86	4790	78	6606.1785310696
86	4791	78.1	6604.3946810671
86	4792	78.2	6602.6113698943
86	4825	78.3	6600.833562134
86	4826	78.4	6599.0559189297
86	4827	78.5	6597.2723389433
86	4828	78.6	6595.4935634482
86	4829	78.7	6593.7167884254
86	4830	78.8	6591.9415042777
86	4831	78.9	6590.1583043953
86	4832	79	6588.3814046042
86	4833	79.1	6586.5950694253
86	4834	79.2	6584.8135529543
86	4835	79.3	6583.025834006
86	4836	79.4	6581.2429086183
86	4881	79.5	6579.4606497742
86	4882	79.6	6577.6726055434
86	4917	79.7	6575.8899539556
86	4918	79.8	6574.1120401311
86	4919	79.9	6572.3368331182
86	4920	80	6570.5587988865
86	4921	80.1	6568.7724161878
86	4922	80.2	6566.9895436143
86	4923	80.3	6565.2124068423
86	4924	80.4	6563.4351785505
86	4925	80.5	6561.6519584484
86	4926	80.6	6559.8643727483
86	4927	80.7	6558.0821667597
86	4928	80.8	6556.2971319062
86	4929	80.9	6554.515795862
86	4930	81	6552.7386560028
86	4981	81.1	6550.9608155679
86	4982	81.2	6549.1774751781
86	4983	81.3	6547.3940754412
86	4984	81.4	6545.6094172591
86	4985	81.5	6543.826309866
86	4986	81.6	6542.0460779109
86	4987	81.7	6540.2706786236
86	4988	81.8	6538.4952522336
86	5033	81.9	6536.713142023
86	5034	82	6534.9320881286
86	5035	82.1	6533.1541759908
86	5036	82.2	6531.3756730301
86	5037	82.3	6529.5952992456
86	5038	82.4	6527.8192200386
86	5121	82.5	6526.0379529402
86	5122	82.6	6524.2590444822
86	5123	82.7	6522.4788124004
86	5168	82.8	6520.7025540397
86	5169	82.9	6518.9222640976
86	5170	83	6517.1390060054
86	5171	83.1	6515.356587098
86	5172	83.2	6513.5808936928
86	5173	83.3	6511.8043641934
86	5174	83.4	6510.0234903181
86	5189	83.5	6508.246671393
86	5190	83.6	6506.4603807499
86	5191	83.7	6504.6837224132
86	5242	83.8	6502.8983478223
86	5243	83.9	6501.1103220291
86	5244	84	6499.3333163524
86	5245	84.1	6497.5505583135
86	5246	84.2	6495.7706224091
86	5279	84.3	6493.9863483823
86	5280	84.4	6492.2062997985
86	5281	84.5	6490.419735358
86	5282	84.6	6488.6334895375
86	5283	84.7	6486.848340995
86	5284	84.8	6485.0603410952
86	5285	84.9	6483.2747682841
86	5286	85	6481.497816648
86	5287	85.1	6479.720477849
86	5288	85.2	6477.9396922923
86	5289	85.3	6476.1535263732
86	5290	85.4	6474.373130884
86	5291	85.5	6472.5921973072
86	5292	85.6	6470.8147703611
86	5293	85.7	6469.0336695594
86	5332	85.8	6467.2499636325
86	5333	85.9	6465.4622182402
86	5334	86	6463.6802815322
86	5343	86.1	6461.8982115804
86	5376	86.2	6460.1205043422
86	5377	86.3	6458.3448726415
86	5378	86.4	6456.5630846365
86	5379	86.5	6454.7828850472
86	5380	86.6	6452.9957638383
86	5431	86.7	6451.2172908856
86	5432	86.8	6449.4309279823
86	5433	86.9	6447.6548640374
86	5434	87	6445.8784932735
86	5474	87.1	6444.0933057781
86	5475	87.2	6442.3137462423
86	5476	87.3	6440.5295113731
86	5477	87.4	6438.7475516928
86	5478	87.5	6436.9720550396
86	5529	87.6	6435.1926858593
86	5530	87.7	6433.4140400867
86	5581	87.8	6431.6296952232
86	5582	87.9	6429.8444303118
86	5583	88	6428.0685744149
86	5584	88.1	6426.2873161275
86	5585	88.2	6424.5039917483
86	5586	88.3	6422.7225721292
86	5587	88.4	6420.9347360437
86	5588	88.5	6419.1498570807
86	5589	88.6	6417.370268938
86	5590	88.7	6415.5844473584
86	5591	88.8	6413.7978492245
86	5642	88.9	6412.0144351793
86	5643	89	6410.2302492207
86	5644	89.1	6408.4515096074
86	5645	89.2	6406.670578687
86	5702	89.3	6404.8855825094
86	5703	89.4	6403.1092160049
86	5704	89.5	6401.3286652639
86	5705	89.6	6399.5479352749
86	5706	89.7	6397.7635853689
86	5707	89.8	6395.9840817118
86	5752	89.9	6394.1984049688
86	5753	90	6392.4141460739
86	5754	90.1	6390.6278551416
86	5755	90.2	6388.8470235699
86	5756	90.3	6387.062825901
86	5757	90.4	6385.2840009215
86	5758	90.5	6383.498580854
86	5797	90.6	6381.7222368523
86	5798	90.7	6379.9379975074
86	5799	90.8	6378.1594101228
86	5800	90.9	6376.375876019
86	5801	91	6374.6007650789
86	5802	91.1	6372.8241212143
86	5803	91.2	6371.0380469062
86	5836	91.3	6369.2596933986
86	5837	91.4	6367.478116454
86	5846	91.5	6365.6945840422
86	5897	91.6	6363.9094888658
86	5930	91.7	6362.1289969993
86	5931	91.8	6360.3521982032
86	5932	91.9	6358.5702697085
86	5953	92	6356.7929211376
86	5954	92.1	6355.0088816484
86	5955	92.2	6353.2212065734
86	5956	92.3	6351.4352877439
86	5989	92.4	6349.6488661317
86	5990	92.5	6347.8612783885
86	5991	92.6	6346.07802714
86	5992	92.7	6344.3016791114
86	5993	92.8	6342.5204731347
86	5994	92.9	6340.7433482268
86	5995	93	6338.9632548716
86	5996	93.1	6337.1802786005
86	5997	93.2	6335.3993202105
86	5998	93.3	6333.6196695982
86	6049	93.4	6331.8328260593
86	6050	93.5	6330.0547323887
86	6051	93.6	6328.2682561023
86	6052	93.7	6326.4841252477
86	6097	93.8	6324.6997653719
86	6118	93.9	6322.9291243114
86	6119	94	6321.1970902883
86	6120	94.1	6319.4959406448
86	6121	94.2	6317.8363484351
86	6122	94.3	6316.2169181728
86	6123	94.4	6314.6302785651
86	6124	94.5	6313.0830320576
86	6125	94.6	6311.5585030515
86	6170	94.7	6310.0698057288
86	6171	94.8	6308.6257041216
86	6172	94.9	6307.2126230208
86	6173	95	6305.8303217482
86	6174	95.1	6304.4830769641
86	6175	95.2	6303.1732493506
86	6176	95.3	6301.9005917381
86	6177	95.4	6300.6569725751
86	6178	95.5	6299.4506008999
86	6179	95.6	6298.2823849378
86	6180	95.7	6297.1464194278
86	6181	95.8	6296.0453736732
86	6220	95.9	6294.9639319977
86	6271	96	6293.9197443129
86	6272	96.1	6292.9123613633
86	6273	96.2	6291.9375888568
86	6274	96.3	6290.9877500547
86	6275	96.4	6290.0663588161
86	6276	96.5	6289.1756524885
86	6277	96.6	6288.3262472161
86	6278	96.7	6287.5070667149
86	6279	96.8	6286.7075028977
86	6280	96.9	6285.9420769691
86	6307	97	6285.2039193122
86	6308	97.1	6284.494191966
86	6309	97.2	6283.8134023383
86	6310	97.3	6283.158538554
86	6311	97.4	6282.5390806012
86	6312	97.5	6281.9399555819
86	6313	97.6	6281.3689921371
86	6364	97.7	6280.8275238309
86	6365	97.8	6280.3101877896
86	6366	97.9	6279.8158168306
86	6367	98	6279.3423175129
86	6424	98.1	6278.890084267
86	6425	98.2	6278.4665959219
86	6426	98.3	6278.0636850318
86	6427	98.4	6277.6862339769
86	6428	98.5	6277.3351419612
86	6429	98.6	6276.9994550267
86	6430	98.7	6276.6874898041
86	6431	98.8	6276.3915617216
86	6432	98.9	6276.1066898744
86	6433	99	6275.8459213849
86	6448	99.1	6275.6023829676
86	6449	99.2	6275.3731594132
86	6450	99.3	6275.1179358587
86	6451	99.4	6274.8804878539
86	6452	99.5	6274.627692138
86	6453	99.6	6274.3532282559
86	6454	99.7	6274.0570962076
86	6455	99.8	6273.7849613456
86	6456	99.9	6273.5994286795
86	6457	100	6273.437507423
86	6514	100.1	6273.6380815971
86	6515	100.2	6273.8604831119
86	6516	100.3	6274.2683279515
86	6517	100.4	6274.6942535863
86	6556	100.5	6275.1484345815
86	6557	100.6	6275.7031669954
86	6558	100.7	6276.2782306338
86	6559	100.8	6276.8715941603
86	6604	100.9	6277.490423647
86	6605	101	6278.1310102337
86	6606	101.1	6278.791604197
86	6607	101.2	6279.4691670508
86	6608	101.3	6280.1647610898
86	6609	101.4	6280.8772002082
86	6610	101.5	6281.6150784112
86	6611	101.6	6282.3775765999
86	6612	101.7	6283.1571197927
86	6677	101.8	6283.9529407265
86	6678	101.9	6284.7644060722
86	6679	102	6285.6015644131
86	7102	102.1	6286.4639506629
86	7103	102.2	6287.3430015055
86	7104	102.3	6288.2430809608
86	7105	102.4	6289.1670166398
86	7106	102.5	6290.1042039004
86	7151	102.6	6291.0658460562
86	7208	102.7	6292.049711711
86	7209	102.8	6293.053028531
86	7210	102.9	6294.0799613455
86	7211	103	6295.1255929609
86	7212	103.1	6296.1949218689
86	7213	103.2	6297.288359038
86	7214	103.3	6298.4038324612
86	7215	103.4	6299.5441640316
86	7216	103.5	6300.7083444578
86	7217	103.6	6301.8856226339
86	7218	103.7	6303.0871064036
86	7219	103.8	6304.3053152624
86	7220	103.9	6305.5443148369
86	7221	104	6306.8011053309
86	7248	104.1	6308.0764626429
86	7249	104.2	6309.3662455559
86	7250	104.3	6310.6756223328
86	7251	104.4	6312.0071613254
86	7252	104.5	6313.3565083983
86	7253	104.6	6314.7213634094
86	7254	104.7	6316.1113463094
86	7255	104.8	6317.5207930895
86	7256	104.9	6318.9552311985
86	7257	105	6320.4087999494
86	7259	105.1	6321.8874065001
86	7304	105.2	6323.3842794856
86	7305	105.3	6324.89825729
86	7306	105.4	6326.4381522509
86	7369	105.5	6327.9941055512
86	7370	105.6	6329.5635377395
86	7371	105.7	6331.1468831326
86	7372	105.8	6332.7500098426
86	7373	105.9	6334.3782941444
86	7374	106	6336.0260206786
86	7375	106.1	6337.6912013777
86	7376	106.2	6339.3797271826
86	7377	106.3	6341.0818805129
86	7378	106.4	6342.8089392239
86	7411	106.5	6344.557492724
86	7412	106.6	6346.322713741
86	7413	106.7	6348.0995318792
86	7414	106.8	6349.8757948583
86	7415	106.9	6351.6518939991
86	7416	107	6353.4353791334
86	7417	107.1	6355.2120085923
86	7468	107.2	6356.9947471083
86	7469	107.3	6358.7797097041
86	7520	107.4	6360.5608692647
86	7553	107.5	6362.3374795816
86	7554	107.6	6364.1157952144
86	7587	107.7	6365.8978966513
86	7588	107.8	6367.6773383061
86	7589	107.9	6369.4526754819
86	7616	108	6371.2354052776
86	7617	108.1	6373.0199935253
86	7618	108.2	6374.8024768595
86	7681	108.3	6376.5808029976
86	7682	108.4	6378.3668920344
86	7683	108.5	6380.149862236
86	7684	108.6	6381.9313709375
86	7685	108.7	6383.7092102511
86	7686	108.8	6385.4867388282
86	7713	108.9	6387.2687193035
86	7714	109	6389.0529559218
86	7715	109.1	6390.8399193454
86	7716	109.2	6392.6158062277
86	7717	109.3	6394.3988822546
86	7718	109.4	6396.1864345023
86	7719	109.5	6397.9671844412
86	7720	109.6	6399.7440227943
86	7721	109.7	6401.53115229
86	7722	109.8	6403.3159124275
86	7723	109.9	6405.0998957105
86	7724	110	6406.8769395345
86	7725	110.1	6408.6598780642
86	7726	110.2	6410.4420361248
86	7727	110.3	6412.2275697458
86	7728	110.4	6414.0100822787
86	7729	110.5	6415.7928992116
86	7756	110.6	6417.5707943694
86	7757	110.7	6419.3487645229
86	7758	110.8	6421.1364123706
86	7759	110.9	6422.9145851244
86	7760	111	6424.7012329949
86	7799	111.1	6426.4847502966
86	7826	111.2	6428.2659368396
86	7827	111.3	6430.0530222151
86	7828	111.4	6431.8405433895
