version 2
run General-0-20170413-01:04:56-2292
attr configname General
attr datetime 20170413-01:04:56
attr experiment General
attr inifile omnetpp.ini
attr iterationvars ""
attr iterationvars2 $repetition=0
attr measurement ""
attr network DVCastScenario
attr processid 2292
attr repetition 0
attr replication #0
attr resultdir results
attr runnumber 0
attr seedset 0
param **.coreDebug false
param **.debug false
param *.**.nic.mac1609_4.bitrate 18Mbps
param *.**.nic.mac1609_4.txPower 20mW
param *.**.nic.mac1609_4.useServiceChannel false
param *.**.nic.phy80211p.analogueModels "xmldoc(\"config.xml\")"
param *.**.nic.phy80211p.decider "xmldoc(\"config.xml\")"
param *.**.nic.phy80211p.sensitivity -89dBm
param *.**.nic.phy80211p.thermalNoise -110dBm
param *.**.nic.phy80211p.usePropagationDelay true
param *.**.nic.phy80211p.useThermalNoise true
param *.annotations.draw false
param *.connectionManager.alpha 2.0
param *.connectionManager.carrierFrequency "5.890e9 Hz"
param *.connectionManager.pMax 20mW
param *.connectionManager.sat -89dBm
param *.connectionManager.sendDirect true
param *.manager.autoShutdown true
param *.manager.host "\"localhost\""
param *.manager.launchConfig "xmldoc(\"uah.launchd.xml\")"
param *.manager.margin 25
param *.manager.moduleDisplayString "\"\""
param *.manager.moduleName "\"node\""
param *.manager.moduleType "\"org.car2x.veins.nodes.Car\""
param *.manager.port 9999
param *.manager.updateInterval 0.1s
param *.node[*0].veinsmobility.accidentCount 1
param *.node[*0].veinsmobility.accidentDuration 30s
param *.node[*0].veinsmobility.accidentStart 75s
param *.node[*].appl.beaconInterval 1s
param *.node[*].appl.beaconPriority 3
param *.node[*].appl.dataOnSch false
param *.node[*].appl.dataPriority 2
param *.node[*].appl.debug false
param *.node[*].appl.headerLength "256 bit"
param *.node[*].appl.maxOffset 0.005s
param *.node[*].appl.sendBeacons false
param *.node[*].appl.sendData true
param *.node[*].applType "\"DVCastLayer\""
param *.node[*].mobilityType "\"TraCIMobility\""
param *.node[*].mobilityType.debug true
param *.node[*].veinsmobility.x 0
param *.node[*].veinsmobility.y 0
param *.node[*].veinsmobility.z 1.895
param *.node[*].veinsmobilityType "\"org.car2x.veins.modules.mobility.traci.TraCIMobility\""
param *.node[*].veinsmobilityType.debug true
param *.playgroundSizeX 12500m
param *.playgroundSizeY 12500m
param *.playgroundSizeZ 2500m
param *.world.use2D false
param *.world.useTorus false

vector 2  DVCastScenario.node[0].veinsmobility  posx  ETV
vector 3  DVCastScenario.node[0].veinsmobility  posy  ETV
vector 4  DVCastScenario.node[0].veinsmobility  speed  ETV
vector 5  DVCastScenario.node[0].veinsmobility  acceleration  ETV
vector 6  DVCastScenario.node[0].veinsmobility  co2emission  ETV
vector 9  DVCastScenario.node[1].veinsmobility  posx  ETV
vector 10  DVCastScenario.node[1].veinsmobility  posy  ETV
vector 11  DVCastScenario.node[1].veinsmobility  speed  ETV
vector 12  DVCastScenario.node[1].veinsmobility  acceleration  ETV
vector 13  DVCastScenario.node[1].veinsmobility  co2emission  ETV
vector 16  DVCastScenario.node[2].veinsmobility  posx  ETV
vector 17  DVCastScenario.node[2].veinsmobility  posy  ETV
vector 18  DVCastScenario.node[2].veinsmobility  speed  ETV
vector 19  DVCastScenario.node[2].veinsmobility  acceleration  ETV
vector 20  DVCastScenario.node[2].veinsmobility  co2emission  ETV
vector 23  DVCastScenario.node[3].veinsmobility  posx  ETV
vector 24  DVCastScenario.node[3].veinsmobility  posy  ETV
vector 25  DVCastScenario.node[3].veinsmobility  speed  ETV
vector 26  DVCastScenario.node[3].veinsmobility  acceleration  ETV
vector 27  DVCastScenario.node[3].veinsmobility  co2emission  ETV
2	12	1.1	6427.5400231751
2	21	1.2	6427.5400231751
2	22	1.3	6427.5147367476
2	23	1.4	6427.4649706788
2	24	1.5	6427.3919140783
2	25	1.6	6427.2970390957
2	26	1.7	6427.1798071782
2	27	1.8	6427.0427196337
2	28	1.9	6426.884075387
2	29	2	6426.7072532614
2	30	2.1	6426.5087275798
2	39	2.2	6426.2912023159
2	40	2.3	6426.055541743
2	41	2.4	6425.7995698962
2	42	2.5	6425.5291911638
2	43	2.6	6425.2453401086
2	44	2.7	6424.9404738887
2	45	2.8	6424.6199001656
2	46	2.9	6424.2802021633
2	47	3	6423.921888825
2	48	3.1	6423.5496083064
2	57	3.2	6423.1522513705
2	58	3.3	6422.7300272285
2	59	3.4	6422.2865903228
2	60	3.5	6421.8272695272
2	61	3.6	6421.3532599326
2	62	3.7	6420.8636394702
2	63	3.8	6420.3547853025
2	64	3.9	6419.8214688135
2	65	4	6419.2697186655
2	66	4.1	6418.7042492758
2	75	4.2	6418.1141567968
2	76	4.3	6417.5004867455
2	77	4.4	6416.8636319542
2	78	4.5	6416.204991095
2	79	4.6	6415.5232405187
2	80	4.7	6414.8272237874
2	81	4.8	6414.1131769631
2	82	4.9	6413.3744208956
2	83	5	6412.6181557281
2	84	5.1	6411.8405466358
2	85	5.2	6411.0448394244
2	86	5.3	6410.2236318594
2	87	5.4	6409.3888906964
2	88	5.5	6408.5364053795
2	89	5.6	6407.6654842006
2	90	5.7	6406.7747341794
2	91	5.8	6405.8623783554
2	92	5.9	6404.9281462535
2	93	6	6403.9802586374
2	94	6.1	6403.0065475699
2	95	6.2	6402.015594156
2	96	6.3	6401.0103361763
2	97	6.4	6399.9823998482
2	98	6.5	6398.9287952949
2	99	6.6	6397.8619624413
2	100	6.7	6396.7754363936
2	101	6.8	6395.6743972055
2	102	6.9	6394.550241489
2	103	7	6393.4113733373
2	104	7.1	6392.2584619402
2	105	7.2	6391.080700647
2	106	7.3	6389.8771333121
2	107	7.4	6388.6560283899
2	108	7.5	6387.4124280033
2	109	7.6	6386.1500668727
2	110	7.7	6384.8665724733
2	111	7.8	6383.5645350796
2	112	7.9	6382.2403100602
2	113	8	6380.8999596192
2	114	8.1	6379.5452977847
2	115	8.2	6378.1762664284
2	116	8.3	6376.7969714613
2	117	8.4	6375.4133596465
2	118	8.5	6374.0335801287
2	119	8.6	6372.6529443525
2	120	8.7	6371.302151805
2	121	8.8	6369.9474586249
2	122	8.9	6368.5872906729
2	123	9	6367.2320762158
2	124	9.1	6365.8749649932
2	125	9.2	6364.5155300717
2	126	9.3	6363.1619787221
2	127	9.4	6361.8001820014
2	128	9.5	6360.4415897968
2	129	9.6	6359.0789097565
2	130	9.7	6357.719895918
2	131	9.8	6356.3585890992
2	132	9.9	6355.0080341764
2	133	10	6353.7268594438
2	134	10.1	6353.1047717123
2	135	10.2	6352.4848383678
2	136	10.3	6351.8674423983
2	137	10.4	6351.2477367206
2	138	10.5	6350.6296088102
2	139	10.6	6350.0093383186
2	140	10.7	6349.3868639381
2	141	10.8	6348.7663713761
2	142	10.9	6348.143998198
2	143	11	6347.5214271101
2	144	11.1	6347.0678430178
2	145	11.2	6347.0598466724
2	146	11.3	6347.0518306972
2	147	11.4	6347.0437913531
2	148	11.5	6347.0357734109
2	149	11.6	6347.0277916961
2	150	11.7	6347.0197837934
2	151	11.8	6347.0117686078
2	152	11.9	6347.003768426
2	153	12	6346.9957356973
2	154	12.1	6346.9877479652
2	155	12.2	6346.9797677857
2	156	12.3	6346.9717309213
2	157	12.4	6346.9636945362
2	158	12.5	6346.9556757392
2	159	12.6	6346.9476741591
2	160	12.7	6346.9396255393
2	161	12.8	6346.9316390676
2	162	12.9	6346.9236327478
2	163	13	6346.915644287
2	164	13.1	6346.9076274863
2	165	13.2	6346.8996203666
2	166	13.3	6346.89160288
2	167	13.4	6346.8836183237
2	168	13.5	6346.8755827277
2	169	13.6	6346.8675980212
2	170	13.7	6346.8595696202
2	171	13.8	6346.8515167524
2	172	13.9	6346.8434959462
2	173	14	6346.8354943159
2	174	14.1	6346.8274778779
2	175	14.2	6346.8194422987
2	176	14.3	6346.8114130693
2	177	14.4	6346.8033957527
2	178	14.5	6346.7953544645
2	179	14.6	6346.7873503007
2	180	14.7	6346.7793114818
2	181	14.8	6346.7713149164
2	182	14.9	6346.7632829135
2	183	15	6346.755283137
2	184	15.1	6346.7472936071
2	185	15.2	6346.7392531679
2	186	15.3	6346.7312547183
2	187	15.4	6346.7232581464
2	188	15.5	6346.7152216634
2	189	15.6	6346.7072239383
2	190	15.7	6346.6991868302
2	199	15.8	6346.6911850028
2	200	15.9	6346.6831740095
2	201	16	6346.6751839226
2	202	16.1	6346.6671840722
2	211	16.2	6346.6591698187
2	212	16.3	6346.6511763029
2	213	16.4	6346.6431398916
2	214	16.5	6346.6351532591
2	215	16.6	6346.6271543181
2	216	16.7	6346.6191548486
2	217	16.8	6346.6111656293
2	218	16.9	6346.603171042
2	219	17	6346.5951831613
2	220	17.1	6346.5872045301
2	221	17.2	6346.5791519632
2	222	17.3	6346.5711300295
2	223	17.4	6346.5630996055
2	224	17.5	6346.5550558273
2	225	17.6	6346.5470335642
2	226	17.7	6346.5390065893
2	227	17.8	6346.530984722
2	228	17.9	6346.5229619598
2	229	18	6346.5149675152
2	230	18.1	6346.5069391615
2	231	18.2	6346.4988873408
2	232	18.3	6346.4908574248
2	233	18.4	6346.4828234419
2	234	18.5	6346.4748316507
2	235	18.6	6346.4668354662
2	236	18.7	6346.4588111615
2	245	18.8	6346.4507775945
2	246	18.9	6346.4307168936
2	247	19	6346.4093589449
2	248	19.1	6346.3879976838
2	249	19.2	6346.366634701
2	250	19.3	6346.3452869562
2	251	19.4	6346.3239694648
2	252	19.5	6346.3026895621
2	253	19.6	6346.2812753721
2	254	19.7	6346.2598273188
2	255	19.8	6346.2384041145
2	256	19.9	6346.2171398482
2	257	20	6346.1957883847
2	258	20.1	6346.1745155956
2	259	20.2	6346.1531488242
2	260	20.3	6346.1317942431
2	261	20.4	6346.1104559513
2	262	20.5	6346.0890348277
2	263	20.6	6346.0676930817
2	264	20.7	6346.0462725974
2	265	20.8	6346.0248485794
2	266	20.9	6346.0034171029
2	267	21	6345.9819837617
2	268	21.1	6345.9607098527
2	269	21.2	6345.9393454378
2	270	21.3	6345.9180119176
2	271	21.4	6345.8965673536
2	272	21.5	6345.8752713278
2	273	21.6	6345.8538832198
2	274	21.7	6345.8325342875
2	275	21.8	6345.8111962732
2	276	21.9	6345.7898710806
2	277	22	6345.7684527279
2	278	22.1	6345.7470197941
2	279	22.2	6345.7256969964
2	280	22.3	6345.7044350555
2	281	22.4	6345.6831311466
2	282	22.5	6345.6617427776
2	283	22.6	6345.6403818906
2	284	22.7	6345.6190386642
2	285	22.8	6345.5976963263
2	294	22.9	6345.576368624
2	295	23	6345.5549371008
2	296	23.1	6345.5335044744
2	297	23.2	6345.5122230134
2	298	23.3	6345.4908760179
2	299	23.4	6345.4695353495
2	300	23.5	6345.4482018201
2	301	23.6	6345.4268273516
2	302	23.7	6345.4055744233
2	303	23.8	6345.3841995726
2	304	23.9	6345.3628118223
2	305	24	6345.3415238386
2	306	24.1	6345.3201477391
2	307	24.2	6345.2988587142
2	308	24.3	6345.2775459472
2	309	24.4	6345.2562232144
2	310	24.5	6345.2349446496
2	311	24.6	6345.2135805417
2	312	24.7	6345.1922787468
2	313	24.8	6345.1710232615
2	314	24.9	6345.1496530704
2	315	25	6345.1282932283
2	316	25.1	6345.1068948712
2	317	25.2	6345.0855848283
2	318	25.3	6345.0641591335
2	333	25.4	6345.0427549605
2	334	25.5	6345.0214839407
2	335	25.6	6345.0001112811
2	336	25.7	6344.9786841322
2	337	25.8	6344.9572607973
2	338	25.9	6344.9358759253
2	339	26	6344.9145856353
2	340	26.1	6344.8931951095
2	341	26.2	6344.8718157513
2	342	26.3	6344.8504772451
2	343	26.4	6344.8291373653
2	344	26.5	6344.8077573872
2	345	26.6	6344.7863372673
2	346	26.7	6344.7650293877
2	347	26.8	6344.7437022015
2	348	26.9	6344.7223420447
2	349	27	6344.7009679976
2	350	27.1	6344.6797107766
2	351	27.2	6344.6582646531
2	352	27.3	6344.6368444626
2	353	27.4	6344.6154377331
2	354	27.5	6344.5941836227
2	355	27.6	6344.5729283728
2	356	27.7	6344.5516566545
2	357	27.8	6344.530262421
2	366	27.9	6344.5088177473
2	367	28	6344.4874339067
2	368	28.1	6344.4660177511
2	369	28.2	6344.4446339894
2	370	28.3	6344.4232868688
2	371	28.4	6344.4019145284
2	372	28.5	6344.3806541858
2	373	28.6	6344.3593401222
2	374	28.7	6344.3380002107
2	375	28.8	6344.3165799783
2	376	28.9	6344.2952574714
2	377	29	6344.273899865
2	378	29.1	6344.2525619016
2	379	29.2	6344.2312128252
2	380	29.3	6344.2098482502
2	381	29.4	6344.1883999606
2	382	29.5	6344.1676087336
2	383	29.6	6344.1472679804
2	384	29.7	6344.1275432362
2	385	29.8	6344.108240663
2	386	29.9	6344.0896093438
2	395	30	6344.0714822954
2	396	30.1	6344.053771046
2	397	30.2	6344.0366099121
2	398	30.3	6344.0200079088
2	399	30.4	6344.0039200873
2	400	30.5	6343.9882884907
2	401	30.6	6343.9731494277
2	402	30.7	6343.9585103161
2	403	30.8	6343.9442394993
2	404	30.9	6343.9304891002
2	405	31	6343.9171796697
2	406	31.1	6343.9042871923
2	407	31.2	6343.8918904644
2	408	31.3	6343.879918541
2	409	31.4	6343.8684403243
2	410	31.5	6343.8574537629
2	411	31.6	6343.8469101417
2	412	31.7	6343.8367273246
2	413	31.8	6343.8269502871
2	414	31.9	6343.8176912681
2	415	32	6343.808894487
2	416	32.1	6343.8004018314
2	417	32.2	6343.7923102581
2	418	32.3	6343.7845959863
2	419	32.4	6343.7773158602
2	420	32.5	6343.7703205136
2	421	32.6	6343.7637430862
2	422	32.7	6343.757392969
2	423	32.8	6343.7515224892
2	424	32.9	6343.7458850965
2	425	33	6343.7405942206
2	426	33.1	6343.7349018329
2	427	33.2	6343.7288079333
2	428	33.3	6343.7223125218
2	429	33.4	6343.7154155985
2	430	33.5	6343.7716786564
2	431	33.6	6344.0382714593
2	432	33.7	6344.319007961
2	433	33.8	6344.6736655402
2	434	33.9	6345.1794409616
2	435	34	6345.701174988
2	436	34.1	6346.216883345
2	437	34.2	6346.5679772826
2	438	34.3	6346.9327616854
2	439	34.4	6347.0181506274
2	440	34.5	6347.0287254238
2	441	34.6	6347.0395845937
2	442	34.7	6347.0506563957
2	443	34.8	6347.0620100005
2	444	34.9	6347.0736083264
2	445	35	6347.0854545726
2	446	35.1	6347.0975218867
2	447	35.2	6347.1099725757
2	448	35.3	6347.1227479807
2	449	35.4	6347.1358909435
2	450	35.5	6347.1494236444
2	451	35.6	6347.163334581
2	452	35.7	6347.1774502844
2	453	35.8	6347.1917954135
2	454	35.9	6347.206487579
2	455	36	6347.2215009732
2	456	36.1	6347.2368466558
2	457	36.2	6347.2525172638
2	458	36.3	6347.268514131
2	459	36.4	6347.2847869497
2	474	36.5	6347.3013263983
2	475	36.6	6347.3182038561
2	476	36.7	6347.3353270646
2	477	36.8	6347.3527084449
2	478	36.9	6347.3704110844
2	479	37	6347.3884981025
2	488	37.1	6347.4069806603
2	489	37.2	6347.4257277752
2	490	37.3	6347.4448761365
2	491	37.4	6347.4642336116
2	492	37.5	6347.4837934222
2	493	37.6	6347.5035844221
2	494	37.7	6347.5236322688
2	495	37.8	6347.5440199001
2	496	37.9	6347.5647539008
2	497	38	6347.5858843826
2	498	38.1	6347.6072300095
2	499	38.2	6347.6286045977
2	514	38.3	6347.6498704413
2	515	38.4	6347.6711390792
2	516	38.5	6347.6924447243
2	517	38.6	6347.7138329225
2	518	38.7	6347.7351970008
2	519	38.8	6347.7566135639
2	520	38.9	6347.77804313
2	521	39	6347.7993578756
2	536	39.1	6347.820622335
2	537	39.2	6347.8419795772
2	538	39.3	6347.8633773443
2	539	39.4	6347.8847996267
2	540	39.5	6347.9061451943
2	541	39.6	6347.9274229507
2	542	39.7	6347.9488249229
2	543	39.8	6347.9701237609
2	544	39.9	6347.9914562889
2	545	40	6348.0127672668
2	546	40.1	6348.0340938563
2	547	40.2	6348.0553814816
2	548	40.3	6348.0767468778
2	557	40.4	6348.0980076184
2	558	40.5	6348.1194497748
2	559	40.6	6348.1408796873
2	560	40.7	6348.1622129778
2	561	40.8	6348.1835885752
2	562	40.9	6348.204922542
2	563	41	6348.2261906128
2	564	41.1	6348.2474596386
2	565	41.2	6348.2687707941
2	566	41.3	6348.2901113805
2	567	41.4	6348.3114102691
2	568	41.5	6348.3327620925
2	569	41.6	6348.3541695875
2	570	41.7	6348.3755304599
2	571	41.8	6348.3969188325
2	572	41.9	6348.418221677
2	573	42	6348.4395134382
2	574	42.1	6348.46095486
2	575	42.2	6348.4822274177
2	576	42.3	6348.5036191502
2	577	42.4	6348.5249128835
2	578	42.5	6348.5463611073
2	579	42.6	6348.5676745995
2	580	42.7	6348.5891183916
2	581	42.8	6348.610380982
2	582	42.9	6348.6316881888
2	583	43	6348.653029103
2	584	43.1	6348.6743573788
2	585	43.2	6348.6957312544
2	586	43.3	6348.7170882986
2	587	43.4	6348.7384902515
2	588	43.5	6348.7598743696
2	589	43.6	6348.7812493319
2	590	43.7	6348.8025619765
2	591	43.8	6348.8239770041
2	592	43.9	6348.845372702
2	593	44	6348.8668037479
2	594	44.1	6348.8881091022
2	603	44.2	6348.9094891813
2	604	44.3	6348.9308047852
2	605	44.4	6348.9521422129
2	606	44.5	6348.9735794673
2	607	44.6	6348.9949244161
2	608	44.7	6349.0163666986
2	609	44.8	6349.0376498864
2	610	44.9	6349.0589890577
2	611	45	6349.0802578556
2	612	45.1	6349.101621939
2	613	45.2	6349.1229989929
2	614	45.3	6349.1442726443
2	615	45.4	6349.1655840711
2	616	45.5	6349.186855132
2	617	45.6	6349.2082014879
2	618	45.7	6349.2295254919
2	619	45.8	6349.2508476093
2	620	45.9	6349.2722750404
2	621	46	6349.2936062471
2	622	46.1	6349.3150146566
2	623	46.2	6349.3363107028
2	624	46.3	6349.3576171569
2	625	46.4	6349.3789033968
2	626	46.5	6349.4001922858
2	627	46.6	6349.4215811721
2	628	46.7	6349.4430206964
2	643	46.8	6349.4643648949
2	644	46.9	6349.485765056
2	645	47	6349.5070794717
2	646	47.1	6349.5283518588
2	647	47.2	6349.5497277723
2	648	47.3	6349.5710788894
2	649	47.4	6349.5924136587
2	650	47.5	6349.6137624132
2	651	47.6	6349.6350851602
2	652	47.7	6349.6564502729
2	653	47.8	6349.6778291365
2	654	47.9	6349.6992659769
2	655	48	6349.72056594
2	656	48.1	6349.7418823569
2	657	48.2	6349.7550279852
2	658	48.3	6349.7630999706
2	659	48.4	6349.7711803741
2	660	48.5	6349.7792462226
2	661	48.6	6349.7872809107
2	662	48.7	6349.7953189234
2	663	48.8	6349.8033857998
2	664	48.9	6349.8114876354
2	665	49	6349.8195418389
2	666	49.1	6349.8276486476
2	667	49.2	6349.8357419222
2	668	49.3	6349.8438483995
2	669	49.4	6349.8519505649
2	678	49.5	6349.8599980596
2	679	49.6	6349.8680963388
2	680	49.7	6349.8761442997
2	681	49.8	6349.8842367779
2	682	49.9	6349.892292949
2	683	50	6349.9003790912
2	684	50.1	6349.9084633254
2	685	50.2	6349.9165111862
2	686	50.3	6349.9245470076
2	687	50.4	6349.9326346677
2	688	50.5	6349.9407181787
2	689	50.6	6349.9487882803
2	690	50.7	6349.9568305055
2	691	50.8	6349.9648806789
2	692	50.9	6349.9729255859
2	693	51	6349.9809620699
2	694	51.1	6349.9890663137
2	695	51.2	6349.9971075422
2	704	51.3	6350.0051436475
2	705	51.4	6350.0132255236
2	706	51.5	6350.021299804
2	707	51.6	6350.0293466293
2	708	51.7	6350.0374172761
2	709	51.8	6350.0455166617
2	710	51.9	6350.0535815503
2	711	52	6350.0616638902
2	712	52.1	6350.0697406217
2	713	52.2	6350.0778188555
2	714	52.3	6350.0859239612
2	715	52.4	6350.0939809054
2	716	52.5	6350.1020816747
2	717	52.6	6350.1101549997
2	718	52.7	6350.1181965791
2	719	52.8	6350.1262785161
2	720	52.9	6350.1343468261
2	721	53	6350.1424430027
2	722	53.1	6350.1505341896
2	723	53.2	6350.1586269768
2	724	53.3	6350.1666708106
2	725	53.4	6350.17477809
2	726	53.5	6350.1828842737
2	727	53.6	6350.1909344938
2	728	53.7	6350.1990070292
2	729	53.8	6350.2070530223
2	730	53.9	6350.2151525907
2	731	54	6350.2232114144
2	732	54.1	6350.2313035116
2	733	54.2	6350.2393866568
2	748	54.3	6350.2474908699
2	749	54.4	6350.2555815379
2	750	54.5	6350.2636693909
2	751	54.6	6350.2717449548
2	752	54.7	6350.2798513492
2	753	54.8	6350.2879267217
2	754	54.9	6350.2960136723
2	755	55	6350.304108263
2	756	55.1	6350.312191802
2	757	55.2	6350.320296512
2	758	55.3	6350.3283370516
2	759	55.4	6350.3363953985
2	760	55.5	6350.3444899051
2	761	55.6	6350.3525903302
2	762	55.7	6350.3606931032
2	763	55.8	6350.3687508147
2	764	55.9	6350.8926733954
2	765	56	6351.5139456904
2	766	56.1	6352.1317827786
2	767	56.2	6352.7532329281
2	768	56.3	6353.3746960297
2	769	56.4	6353.99110956
2	770	56.5	6354.6104199831
2	771	56.6	6355.2287706808
2	772	56.7	6355.8492746108
2	773	56.8	6357.0144688021
2	774	56.9	6358.365060088
2	775	57	6359.717107741
2	776	57.1	6361.0686314762
2	777	57.2	6362.4299413358
2	778	57.3	6363.7808503495
2	779	57.4	6365.1428987555
2	780	57.5	6366.4995121913
2	781	57.6	6367.8506440669
2	782	57.7	6369.2094220059
2	783	57.8	6370.5624440009
2	784	57.9	6371.9145802046
2	785	58	6373.2720122331
2	786	58.1	6374.6497111103
2	787	58.2	6376.0285561618
2	802	58.3	6377.410983725
2	817	58.4	6378.7878050952
2	818	58.5	6380.172207191
2	819	58.6	6381.5530432059
2	820	58.7	6382.9341939688
2	821	58.8	6384.3106595573
2	836	58.9	6385.693185481
2	837	59	6387.0736097389
2	838	59.1	6388.4551720726
2	839	59.2	6389.830433848
2	840	59.3	6391.2102200328
2	841	59.4	6392.5837662291
2	842	59.5	6393.9655704344
2	843	59.6	6395.3448905427
2	844	59.7	6396.7291304833
2	845	59.8	6398.1040614555
2	846	59.9	6399.4796742435
2	847	60	6400.8229588416
2	848	60.1	6402.1343320308
2	849	60.2	6403.4047100965
2	850	60.3	6404.6492377896
2	851	60.4	6405.8578185638
2	852	60.5	6407.0269018943
2	853	60.6	6408.1615666553
2	854	60.7	6409.2742339539
2	869	60.8	6410.353413988
2	870	60.9	6411.3968472521
2	871	61	6412.4116163618
2	872	61.1	6413.3846111491
2	873	61.2	6414.3339621456
2	874	61.3	6415.2531486114
2	875	61.4	6416.1337351608
2	876	61.5	6416.9814532369
2	877	61.6	6417.8034479668
2	878	61.7	6418.5940318323
2	879	61.8	6419.3544057064
2	880	61.9	6420.0859872838
2	881	62	6420.7882732561
2	882	62.1	6421.4627495043
2	883	62.2	6422.1160967723
2	884	62.3	6422.7376735379
2	885	62.4	6423.3409902928
2	886	62.5	6423.9089696062
2	887	62.6	6424.4497733326
2	888	62.7	6424.9715330131
2	889	62.8	6425.4679060434
2	890	62.9	6425.9361320008
2	891	63	6426.38303293
2	892	63.1	6426.80249942
2	907	63.2	6427.2049316571
2	908	63.3	6427.578444155
2	909	63.4	6427.9415879323
2	910	63.5	6428.2841731259
2	925	63.6	6428.6527581699
2	926	63.7	6429.0473430642
2	927	63.8	6429.4679278089
2	928	63.9	6429.9145124039
2	929	64	6430.3870968493
2	930	64.1	6430.885681145
2	931	64.2	6431.4102652911
2	932	64.3	6431.9608492875
2	933	64.4	6432.5374331342
2	934	64.5	6433.1293652818
2	935	64.6	6433.7390633062
2	936	64.7	6434.3663715808
2	937	64.8	6435.0111020614
2	938	64.9	6435.6456771187
2	939	65	6436.2466904912
2	940	65.1	6436.8673985051
2	941	65.2	6437.4827124243
2	942	65.3	6437.8857982781
2	943	65.4	6438.2974533302
2	958	65.5	6438.6840809291
2	959	65.6	6438.8114944161
2	960	65.7	6438.94268673
2	961	65.8	6439.0759311199
2	962	65.9	6439.1196877177
2	963	66	6439.1328447305
2	964	66.1	6439.1463436882
2	965	66.2	6439.1600565824
2	966	66.3	6439.1740351191
2	967	66.4	6439.1883528055
2	968	66.5	6439.2029396031
2	969	66.6	6439.2178304601
2	970	66.7	6439.2330669101
2	971	66.8	6439.2486413329
2	972	66.9	6439.264495676
2	973	67	6439.2807000701
2	974	67.1	6439.2972217341
2	975	67.2	6439.3140417734
2	990	67.3	6439.331185874
2	991	67.4	6439.348551033
2	1006	67.5	6439.3663027582
2	1007	67.6	6439.3842839055
2	1008	67.7	6439.4026081447
2	1023	67.8	6439.4211319314
2	1024	67.9	6439.4399001336
2	1025	68	6439.4589589053
2	1026	68.1	6439.4782811371
2	1027	68.2	6439.4979850896
2	1028	68.3	6439.5179536396
2	1029	68.4	6439.5382588497
2	1030	68.5	6439.5589241403
2	1031	68.6	6439.5796062281
2	1032	68.7	6439.6003390966
2	1033	68.8	6439.621160985
2	1034	68.9	6439.6418280313
2	1035	69	6439.6625818588
2	1036	69.1	6439.6833107645
2	1037	69.2	6439.7040842496
2	1038	69.3	6439.7248892495
2	1039	69.4	6439.7456258508
2	1040	69.5	6439.7664172258
2	1041	69.6	6439.7871566843
2	1042	69.7	6439.8078951841
2	1043	69.8	6439.8287265838
2	1044	69.9	6439.8494813854
2	1045	70	6439.8701919899
2	1046	70.1	6439.8909003111
2	1047	70.2	6439.9112271347
2	1048	70.3	6439.9309179605
2	1049	70.4	6439.9501426497
2	1050	70.5	6439.9688407804
2	1051	70.6	6439.9871060065
2	1052	70.7	6440.0047259247
2	1053	70.8	6440.0218194016
2	1054	70.9	6440.0385079547
2	1055	71	6440.0546394923
2	1056	71.1	6440.0702980614
2	1057	71.2	6440.0855206771
2	1058	71.3	6440.1002895363
2	1059	71.4	6440.1145263515
2	1060	71.5	6440.1282595871
2	1061	71.6	6440.1416206904
2	1062	71.7	6440.1545816157
2	1063	71.8	6440.1670349068
2	1064	71.9	6440.1790215622
2	1065	72	6440.190531739
2	1066	72.1	6440.2016361243
2	1067	72.2	6440.212316596
2	1068	72.3	6440.2225135149
2	1083	72.4	6440.2322774889
2	1084	72.5	6440.2416615004
2	1099	72.6	6440.2507596107
2	1100	72.7	6440.2594249144
2	1101	72.8	6440.2675964429
2	1102	72.9	6440.2754008451
2	1103	73	6440.2828897845
2	1104	73.1	6440.2900338351
2	1105	73.2	6440.2968740179
2	1106	73.3	6440.3033249341
2	1107	73.4	6440.3093451251
2	1108	73.5	6440.3150162713
2	1109	73.6	6440.320526944
2	1110	73.7	6440.3255526018
2	1111	73.8	6440.3304577905
2	1112	73.9	6440.3350626046
2	1113	74	6440.3392456994
2	1114	74.1	6440.3433029181
2	1115	74.2	6440.3469953711
2	1116	74.3	6440.350339859
2	1117	74.4	6440.3527927186
2	1118	74.5	6440.3551305938
2	1133	74.6	6440.357335457
2	1134	74.7	6440.3593125087
2	1135	74.8	6440.3611597772
2	1136	74.9	6440.362919673
2	1137	75	6440.3645219273
2	1138	75.1	6440.3659831554
2	1139	75.2	6440.3673393814
2	1140	75.3	6440.3686009458
2	1141	75.4	6440.3697474703
2	1142	75.5	6440.370782749
2	1143	75.6	6440.3717597834
2	1144	75.7	6440.3726481921
2	1145	75.8	6440.3734683928
2	1146	75.9	6440.3741849648
2	1147	76	6440.3748438724
2	1149	76.1	6440.3754404413
2	1150	76.2	6440.3755137544
2	1151	76.3	6440.3755137544
2	1152	76.4	6440.3755137544
2	1153	76.5	6440.3755137544
2	1154	76.6	6440.3755137544
2	1155	76.7	6440.3755137544
2	1156	76.8	6440.3755137544
2	1157	76.9	6440.3755137544
2	1158	77	6440.3755137544
2	1159	77.1	6440.3755137544
2	1160	77.2	6440.3755137544
2	1161	77.3	6440.3755137544
2	1162	77.4	6440.3755137544
2	1163	77.5	6440.3755137544
2	1178	77.6	6440.3755137544
2	1193	77.7	6440.3755137544
2	1194	77.8	6440.3755137544
2	1195	77.9	6440.3755137544
2	1196	78	6440.3755137544
2	1197	78.1	6440.3755137544
2	1198	78.2	6440.3755137544
2	1199	78.3	6440.3755137544
2	1200	78.4	6440.3755137544
2	1201	78.5	6440.3755137544
2	1202	78.6	6440.3755137544
2	1203	78.7	6440.3755137544
2	1204	78.8	6440.3755137544
2	1205	78.9	6440.3755137544
2	1206	79	6440.3755137544
2	1207	79.1	6440.3755137544
2	1208	79.2	6440.3755137544
2	1209	79.3	6440.3755137544
2	1210	79.4	6440.3755137544
2	1211	79.5	6440.3755137544
2	1212	79.6	6440.3755137544
2	1227	79.7	6440.3755137544
2	1228	79.8	6440.3755137544
2	1229	79.9	6440.3755137544
2	1230	80	6440.3755137544
2	1231	80.1	6440.3755137544
2	1232	80.2	6440.3755137544
2	1233	80.3	6440.3755137544
2	1234	80.4	6440.3755137544
2	1249	80.5	6440.3755137544
2	1250	80.6	6440.3755137544
2	1251	80.7	6440.3755137544
2	1252	80.8	6440.3755137544
2	1253	80.9	6440.3755137544
2	1254	81	6440.3755137544
2	1255	81.1	6440.3755137544
2	1256	81.2	6440.3755137544
2	1257	81.3	6440.3755137544
2	1258	81.4	6440.3755137544
2	1259	81.5	6440.3755137544
2	1260	81.6	6440.3755137544
2	1261	81.7	6440.3755137544
2	1262	81.8	6440.3755137544
2	1263	81.9	6440.3755137544
2	1264	82	6440.3755137544
2	1265	82.1	6440.3755137544
2	1266	82.2	6440.3755137544
2	1267	82.3	6440.3755137544
2	1268	82.4	6440.3755137544
2	1269	82.5	6440.3755137544
2	1270	82.6	6440.3755137544
2	1271	82.7	6440.3755137544
2	1272	82.8	6440.3755137544
2	1273	82.9	6440.3755137544
2	1274	83	6440.3755137544
2	1275	83.1	6440.3755137544
2	1276	83.2	6440.3755137544
2	1277	83.3	6440.3755137544
2	1278	83.4	6440.3755137544
2	1279	83.5	6440.3755137544
2	1280	83.6	6440.3755137544
2	1281	83.7	6440.3755137544
2	1282	83.8	6440.3755137544
2	1283	83.9	6440.3755137544
2	1284	84	6440.3755137544
2	1285	84.1	6440.3755137544
2	1286	84.2	6440.3755137544
2	1287	84.3	6440.3755137544
2	1288	84.4	6440.3755137544
2	1289	84.5	6440.3755137544
2	1290	84.6	6440.3755137544
2	1291	84.7	6440.3755137544
2	1292	84.8	6440.3755137544
2	1293	84.9	6440.3755137544
2	1294	85	6440.3755137544
2	1295	85.1	6440.3755137544
2	1296	85.2	6440.3755137544
2	1311	85.3	6440.3755137544
2	1312	85.4	6440.3755137544
2	1313	85.5	6440.3755137544
2	1314	85.6	6440.3755137544
2	1315	85.7	6440.3755137544
2	1316	85.8	6440.3755137544
2	1317	85.9	6440.3755137544
2	1318	86	6440.3755137544
2	1319	86.1	6440.3755137544
2	1320	86.2	6440.3755137544
2	1321	86.3	6440.3755137544
2	1322	86.4	6440.3755137544
2	1323	86.5	6440.3755137544
2	1324	86.6	6440.3755137544
2	1325	86.7	6440.3755137544
2	1340	86.8	6440.3755137544
2	1341	86.9	6440.3755137544
2	1342	87	6440.3755137544
2	1343	87.1	6440.3755137544
2	1344	87.2	6440.3755137544
2	1345	87.3	6440.3755137544
2	1346	87.4	6440.3755137544
2	1347	87.5	6440.3755137544
2	1348	87.6	6440.3755137544
2	1349	87.7	6440.3755137544
2	1350	87.8	6440.3755137544
2	1351	87.9	6440.3755137544
2	1352	88	6440.3755137544
2	1353	88.1	6440.3755137544
2	1354	88.2	6440.3755137544
2	1355	88.3	6440.3755137544
2	1356	88.4	6440.3755137544
2	1357	88.5	6440.3755137544
2	1358	88.6	6440.3755137544
2	1359	88.7	6440.3755137544
2	1360	88.8	6440.3755137544
2	1361	88.9	6440.3755137544
2	1362	89	6440.3755137544
2	1363	89.1	6440.3755137544
2	1364	89.2	6440.3755137544
2	1365	89.3	6440.3755137544
2	1366	89.4	6440.3755137544
2	1367	89.5	6440.3755137544
2	1368	89.6	6440.3755137544
2	1369	89.7	6440.3755137544
2	1370	89.8	6440.3755137544
2	1371	89.9	6440.3755137544
2	1372	90	6440.3755137544
2	1373	90.1	6440.3755137544
2	1374	90.2	6440.3755137544
2	1375	90.3	6440.3755137544
2	1376	90.4	6440.3755137544
2	1377	90.5	6440.3755137544
2	1378	90.6	6440.3755137544
2	1379	90.7	6440.3755137544
2	1380	90.8	6440.3755137544
2	1381	90.9	6440.3755137544
2	1382	91	6440.3755137544
2	1397	91.1	6440.3755137544
2	1398	91.2	6440.3755137544
2	1399	91.3	6440.3755137544
2	1400	91.4	6440.3755137544
2	1401	91.5	6440.3755137544
2	1402	91.6	6440.3755137544
2	1403	91.7	6440.3755137544
2	1404	91.8	6440.3755137544
2	1405	91.9	6440.3755137544
2	1406	92	6440.3755137544
2	1407	92.1	6440.3755137544
2	1408	92.2	6440.3755137544
2	1429	92.3	6440.3755137544
2	1430	92.4	6440.3755137544
2	1431	92.5	6440.3755137544
2	1432	92.6	6440.3755137544
2	1433	92.7	6440.3755137544
2	1434	92.8	6440.3755137544
2	1435	92.9	6440.3755137544
2	1436	93	6440.3755137544
2	1437	93.1	6440.3755137544
2	1438	93.2	6440.3755137544
2	1439	93.3	6440.3755137544
2	1440	93.4	6440.3755137544
2	1441	93.5	6440.3755137544
2	1442	93.6	6440.3755137544
2	1443	93.7	6440.3755137544
2	1444	93.8	6440.3755137544
2	1465	93.9	6440.3755137544
2	1466	94	6440.3755137544
2	1467	94.1	6440.3755137544
2	1468	94.2	6440.3755137544
2	1469	94.3	6440.3755137544
2	1470	94.4	6440.3755137544
2	1471	94.5	6440.3755137544
2	1472	94.6	6440.3755137544
2	1473	94.7	6440.3755137544
2	1474	94.8	6440.3755137544
2	1475	94.9	6440.3755137544
2	1476	95	6440.3755137544
2	1491	95.1	6440.3755137544
2	1492	95.2	6440.3755137544
2	1493	95.3	6440.3755137544
2	1494	95.4	6440.3755137544
2	1495	95.5	6440.3755137544
2	1496	95.6	6440.3755137544
2	1497	95.7	6440.3755137544
2	1498	95.8	6440.3755137544
2	1499	95.9	6440.3755137544
2	1500	96	6440.3755137544
2	1501	96.1	6440.3755137544
2	1502	96.2	6440.3755137544
2	1503	96.3	6440.3755137544
2	1504	96.4	6440.3755137544
2	1505	96.5	6440.3755137544
2	1506	96.6	6440.3755137544
2	1507	96.7	6440.3755137544
2	1508	96.8	6440.3755137544
2	1509	96.9	6440.3755137544
2	1510	97	6440.3755137544
2	1511	97.1	6440.3755137544
2	1532	97.2	6440.3755137544
2	1533	97.3	6440.3755137544
2	1534	97.4	6440.3755137544
2	1535	97.5	6440.3755137544
2	1536	97.6	6440.3755137544
2	1537	97.7	6440.3755137544
2	1538	97.8	6440.3755137544
2	1539	97.9	6440.3755137544
2	1540	98	6440.3755137544
2	1541	98.1	6440.3755137544
2	1542	98.2	6440.3755137544
2	1543	98.3	6440.3755137544
2	1544	98.4	6440.3755137544
2	1545	98.5	6440.3755137544
2	1546	98.6	6440.3755137544
2	1547	98.7	6440.3755137544
2	1548	98.8	6440.3755137544
2	1549	98.9	6440.3755137544
2	1550	99	6440.3755137544
2	1551	99.1	6440.3755137544
2	1552	99.2	6440.3755137544
2	1553	99.3	6440.3755137544
2	1554	99.4	6440.3755137544
2	1555	99.5	6440.3755137544
2	1556	99.6	6440.3755137544
2	1557	99.7	6440.3755137544
2	1558	99.8	6440.3755137544
2	1559	99.9	6440.3755137544
2	1560	100	6440.3755137544
2	1561	100.1	6440.3755137544
2	1588	100.2	6440.3755137544
2	1589	100.3	6440.3755137544
2	1590	100.4	6440.3755137544
2	1591	100.5	6440.3755137544
2	1592	100.6	6440.3755137544
2	1593	100.7	6440.3755137544
2	1594	100.8	6440.3755137544
2	1595	100.9	6440.3755137544
2	1596	101	6440.3755137544
2	1597	101.1	6440.3755137544
2	1598	101.2	6440.3755137544
2	1599	101.3	6440.3755137544
2	1600	101.4	6440.3755137544
2	1601	101.5	6440.3755137544
2	1602	101.6	6440.3755137544
2	1603	101.7	6440.3755137544
2	1604	101.8	6440.3755137544
2	1605	101.9	6440.3755137544
2	1606	102	6440.3755137544
2	1607	102.1	6440.3755137544
2	1608	102.2	6440.3755137544
2	1629	102.3	6440.3755137544
2	1630	102.4	6440.3755137544
2	1631	102.5	6440.3755137544
2	1632	102.6	6440.3755137544
2	1679	102.7	6440.3755137544
2	1680	102.8	6440.3755137544
2	1681	102.9	6440.3755137544
2	1682	103	6440.3755137544
2	1683	103.1	6440.3755137544
2	1684	103.2	6440.3755137544
2	1685	103.3	6440.3755137544
2	1686	103.4	6440.3755137544
2	1687	103.5	6440.3755137544
2	1688	103.6	6440.3755137544
2	1689	103.7	6440.3755137544
2	1690	103.8	6440.3755137544
2	1691	103.9	6440.3755137544
2	1692	104	6440.3755137544
2	1693	104.1	6440.3755137544
2	1694	104.2	6440.3755137544
2	1695	104.3	6440.3755137544
2	1696	104.4	6440.3755137544
2	1697	104.5	6440.3755137544
2	1698	104.6	6440.3755137544
2	1699	104.7	6440.3755137544
2	1760	104.8	6440.3755137544
2	1761	104.9	6440.3755137544
2	1762	105	6440.3755137544
2	1763	105.1	6440.3755137544
2	1764	105.2	6440.3755137544
2	1765	105.3	6440.3755137544
2	1766	105.4	6440.3755137544
2	1767	105.5	6440.3755137544
2	1768	105.6	6440.3755137544
2	1769	105.7	6440.3755137544
2	1770	105.8	6440.3755137544
2	1771	105.9	6440.3755137544
2	1772	106	6440.3755137544
2	1774	106.1	6440.3755137544
2	1775	106.2	6440.3758160799
2	1776	106.3	6440.3764207311
2	1777	106.4	6440.3773277079
2	1778	106.5	6440.3785370102
2	1779	106.6	6440.38
2	1780	106.7	6440.38
2	1781	106.8	6440.3667787074
2	1782	106.9	6440.3474204054
2	1783	107	6440.326388907
2	1784	107.1	6440.3038185151
2	1785	107.2	6440.279461527
2	1786	107.3	6440.2528278051
2	1787	107.4	6440.2242450753
2	1808	107.5	6440.1934105941
2	1809	107.6	6440.1611120148
2	1810	107.7	6440.1274137717
2	1811	107.8	6440.0923080746
2	1812	107.9	6440.0553941507
2	1813	108	6440.0168721537
2	1814	108.1	6439.9051715309
2	1815	108.2	6439.7343500398
2	1816	108.3	6439.5558853796
2	1817	108.4	6439.3704919996
2	1818	108.5	6439.1759791941
2	1819	108.6	6438.9719219892
2	1820	108.7	6438.7055325302
2	1821	108.8	6438.2789520094
2	1822	108.9	6437.835199029
2	1823	109	6437.3813562051
2	1824	109.1	6436.911861698
2	1825	109.2	6436.3167257023
2	1826	109.3	6435.6798854676
2	1847	109.4	6435.0300758731
2	1848	109.5	6434.3566524172
2	1849	109.6	6433.6606785374
2	1850	109.7	6432.9344748458
2	1851	109.8	6432.192889881
2	1852	109.9	6431.4259009708
2	1853	110	6430.6418037956
2	1854	110.1	6429.8404696251
2	1855	110.2	6429.0134340158
2	1856	110.3	6428.1652783204
2	1857	110.4	6427.3036770561
2	1858	110.5	6426.4180090756
2	1859	110.6	6425.5190610705
2	1860	110.7	6424.6037463761
2	1861	110.8	6423.668567235
2	1862	110.9	6422.7097227441
2	1863	111	6421.7344830601
2	1864	111.1	6420.7414430805
2	1865	111.2	6419.7348361645
2	1866	111.3	6418.7101883427
2	1867	111.4	6417.6665566642
2	1868	111.5	6416.6051186964
2	1869	111.6	6415.526241804
2	1870	111.7	6414.4274341211
2	1871	111.8	6413.3150266316
2	1872	111.9	6412.1818184386
2	1873	112	6411.027654325
2	1874	112.1	6409.8499787434
2	1875	112.2	6408.6524416326
2	1876	112.3	6407.4331015576
2	1877	112.4	6406.1985792322
2	1878	112.5	6404.9487223986
2	1879	112.6	6403.68137966
2	1880	112.7	6402.3982976328
2	1881	112.8	6401.0966958576
2	1882	112.9	6399.7786407757
2	1883	113	6398.4418525852
2	1884	113.1	6397.0915120221
2	1885	113.2	6395.7208536841
2	1886	113.3	6394.3318205794
2	1887	113.4	6392.9196834991
2	1888	113.5	6391.4935114731
2	1889	113.6	6390.0427798988
2	1890	113.7	6388.5732339541
2	1891	113.8	6387.0834130237
2	1892	113.9	6385.5795064035
2	1893	114	6384.0541312406
2	1914	114.1	6382.5047498922
2	1915	114.2	6380.9414903081
2	1916	114.3	6379.3598313413
2	1917	114.4	6377.756461866
2	1918	114.5	6376.1334855831
2	1919	114.6	6374.4877388314
2	1920	114.7	6372.8175981865
2	1921	114.8	6371.1297906158
2	1942	114.9	6369.4218580777
2	1943	115	6367.6917348365
2	1944	115.1	6365.9460663276
2	1945	115.2	6364.1804335889
2	1946	115.3	6362.4000747448
2	1947	115.4	6360.6231981496
2	1948	115.5	6358.8476706043
2	1949	115.6	6357.0605384426
2	1976	115.7	6355.2850716509
2	1977	115.8	6353.4996312467
2	1978	115.9	6351.7207626722
2	1979	116	6349.9334629705
2	1980	116.1	6348.1517501124
2	1981	116.2	6346.3730588627
2	1982	116.3	6344.5970022233
2	1983	116.4	6342.8140166628
2	1984	116.5	6341.0362026723
2	1985	116.6	6339.2577644372
2	1986	116.7	6337.4821188078
2	1987	116.8	6335.7000529522
2	2008	116.9	6333.914506122
2	2009	117	6332.1359036818
2	2010	117.1	6330.3488813257
2	2011	117.2	6328.5661653387
2	2012	117.3	6326.7858455644
2	2013	117.4	6325.0013667751
2	2014	117.5	6323.2178228074
2	2015	117.6	6321.4420365101
2	2016	117.7	6319.6566430311
2	2017	117.8	6317.8711882886
2	2018	117.9	6316.0930370362
2	2019	118	6314.3141220008
2	2020	118.1	6312.5280080784
2	2021	118.2	6310.7510954208
2	2022	118.3	6308.9755624123
2	2023	118.4	6307.1913498913
2	2024	118.5	6305.4084228868
2	2025	118.6	6303.6326511888
2	2026	118.7	6301.851700334
2	2027	118.8	6300.064294802
2	2028	118.9	6298.287638338
2	2029	119	6296.5064407924
2	2030	119.1	6294.7200153328
2	2031	119.2	6292.9413286644
2	2032	119.3	6291.159821521
2	2033	119.4	6289.372254727
2	2034	119.5	6287.5855944193
2	2035	119.6	6285.8104935842
2	2036	119.7	6284.0322682959
2	2037	119.8	6282.2464195779
2	2038	119.9	6280.4665158348
2	2039	120	6278.6906772407
2	2060	120.1	6276.9060491003
2	2061	120.2	6275.118060843
2	2062	120.3	6273.3366410147
2	2063	120.4	6271.5586034478
2	2064	120.5	6269.7856977175
2	2065	120.6	6268.0134139221
2	2066	120.7	6266.2420518205
2	2067	120.8	6264.4648518104
2	2068	120.9	6262.679217492
2	2069	121	6260.8962528895
2	2070	121.1	6259.1200205851
2	2071	121.2	6257.3354279216
2	2072	121.3	6255.5509352912
2	2073	121.4	6253.7664257017
2	2074	121.5	6251.9811197236
2	2075	121.6	6250.2042158309
2	2076	121.7	6248.4217476759
2	2077	121.8	6246.6341598471
2	2078	121.9	6244.8465077098
2	2099	122	6243.0591629818
2	2100	122.1	6241.2749373655
2	2101	122.2	6239.4928541392
2	2102	122.3	6237.7055628264
2	2103	122.4	6235.9265729352
2	2104	122.5	6234.1397486285
2	2105	122.6	6232.362320722
2	2106	122.7	6230.5842359913
3	12	1.1	1323.8625025036
3	21	1.2	1323.8625025036
3	22	1.3	1323.862366167
3	23	1.4	1323.8620978438
3	24	1.5	1323.8617039452
3	25	1.6	1323.8611924087
3	26	1.7	1323.8605603305
3	27	1.8	1323.8598211969
3	28	1.9	1323.8589658362
3	29	2	1323.858012466
3	30	2.1	1323.856942077
3	39	2.2	1323.8557692481
3	40	2.3	1323.8544986393
3	41	2.4	1323.8531185183
3	42	2.5	1323.8516607199
3	43	2.6	1323.8501302829
3	44	2.7	1323.8484865386
3	45	2.8	1323.8467581043
3	46	2.9	1323.8449265578
3	47	3	1323.8429946432
3	48	3.1	1323.8409874219
3	57	3.2	1323.8388449963
3	58	3.3	1323.8365684944
3	59	3.4	1323.8341776199
3	60	3.5	1323.8317011043
3	61	3.6	1323.8291453913
3	62	3.7	1323.8265055094
3	63	3.8	1323.8237619252
3	64	3.9	1323.8208864478
3	65	4	1323.8179115818
3	66	4.1	1323.8148627459
3	75	4.2	1323.8116811499
3	76	4.3	1323.8083724309
3	77	4.4	1323.804938707
3	78	4.5	1323.8013875194
3	79	4.6	1323.7977117313
3	80	4.7	1323.7939590245
3	81	4.8	1323.7901091051
3	82	4.9	1323.7861259611
3	83	5	1323.7820484134
3	84	5.1	1323.7778557859
3	85	5.2	1323.7735655789
3	86	5.3	1323.7691378819
3	87	5.4	1323.7646372159
3	88	5.5	1323.760040879
3	89	5.6	1323.7553451416
3	90	5.7	1323.7505424932
3	91	5.8	1323.745623353
3	92	5.9	1323.7405862627
3	93	6	1323.7354755461
3	94	6.1	1323.7302255974
3	95	6.2	1323.7248826834
3	96	6.3	1323.7125199456
3	97	6.4	1323.6353703903
3	98	6.5	1323.5562943615
3	99	6.6	1323.4762255109
3	100	6.7	1323.39467863
3	101	6.8	1323.3120424964
3	102	6.9	1323.2276714014
3	103	7	1323.1421960961
3	104	7.1	1323.0556668052
3	105	7.2	1322.9672724587
3	106	7.3	1322.8769412951
3	107	7.4	1322.7852938855
3	108	7.5	1322.6919581271
3	109	7.6	1322.5972143213
3	110	7.7	1322.5008844034
3	111	7.8	1322.4031627808
3	112	7.9	1322.3037759136
3	113	8	1322.2031787875
3	114	8.1	1322.1015075504
3	115	8.2	1321.9987578398
3	116	8.3	1321.8952378158
3	117	8.4	1321.7913938001
3	118	8.5	1321.6878374092
3	119	8.6	1321.6050937937
3	120	8.7	1321.8696893772
3	121	8.8	1322.1350490233
3	122	8.9	1322.4014810773
3	123	9	1322.6669428321
3	124	9.1	1322.9327761286
3	125	9.2	1323.1990645952
3	126	9.3	1323.4642005777
3	127	9.4	1323.7309516777
3	128	9.5	1323.9970750715
3	129	9.6	1324.2639991976
3	130	9.7	1324.5302051818
3	131	9.8	1324.796860319
3	132	9.9	1325.0614093562
3	133	10	1325.4259052758
3	134	10.1	1326.6663778355
3	135	10.2	1327.9025544451
3	136	10.3	1329.1336714082
3	137	10.4	1330.3693940394
3	138	10.5	1331.6019705273
3	139	10.6	1332.8388194242
3	140	10.7	1334.0800629806
3	141	10.8	1335.3173546964
3	142	10.9	1336.5583964505
3	143	11	1337.799832846
3	144	11.1	1339.0720446362
3	145	11.2	1340.4512852461
3	146	11.3	1341.8339116868
3	147	11.4	1343.2205688629
3	148	11.5	1344.6035345749
3	149	11.6	1345.9802516354
3	150	11.7	1347.3614857015
3	151	11.8	1348.7439759377
3	152	11.9	1350.1238782582
3	153	12	1351.5093944026
3	154	12.1	1352.8871493541
3	155	12.2	1354.2636016062
3	156	12.3	1355.6498310821
3	157	12.4	1357.0359778934
3	158	12.5	1358.4190910496
3	159	12.6	1359.7992345625
3	160	12.7	1361.1874916628
3	161	12.8	1362.5650292152
3	162	12.9	1363.9459902506
3	163	13	1365.3238708834
3	164	13.1	1366.7066397072
3	165	13.2	1368.0877387088
3	166	13.3	1369.4706258206
3	167	13.4	1370.8478329994
3	168	13.5	1372.2338437021
3	169	13.6	1373.6110767912
3	170	13.7	1374.995846475
3	171	13.8	1376.3848362891
3	172	13.9	1377.7682959904
3	173	14	1379.1484481514
3	174	14.1	1380.5311544158
3	175	14.2	1381.917162226
3	176	14.3	1383.3020747863
3	177	14.4	1384.6849325912
3	178	14.5	1386.0719251125
3	179	14.6	1387.4525142658
3	180	14.7	1388.8390808591
3	181	14.8	1390.2183594258
3	182	14.9	1391.6037503652
3	183	15	1392.9835827958
3	184	15.1	1394.361647833
3	185	15.2	1395.7484939159
3	186	15.3	1397.1280974649
3	187	15.4	1398.5073771396
3	188	15.5	1399.8935408361
3	189	15.6	1401.2730194157
3	190	15.7	1402.6592909265
3	199	15.8	1404.0394770972
3	200	15.9	1405.42124424
3	201	16	1406.7994053522
3	202	16.1	1408.1792505159
3	211	16.2	1409.5615799799
3	212	16.3	1410.9403325353
3	213	16.4	1412.3264838513
3	214	16.5	1413.7040491562
3	215	16.6	1415.0837374583
3	216	16.7	1416.4635169287
3	217	16.8	1417.8415283862
3	218	16.9	1419.2204657502
3	219	17	1420.598246333
3	220	17.1	1421.9744315343
3	221	17.2	1423.3633694429
3	222	17.3	1424.7470236151
3	223	17.4	1426.1321422314
3	224	17.5	1427.5195642348
3	225	17.6	1428.9032752381
3	226	17.7	1430.2877989307
3	227	17.8	1431.6714416594
3	228	17.9	1433.0552387425
3	229	18	1434.4341514876
3	230	18.1	1435.8189130161
3	231	18.2	1437.2077222218
3	232	18.3	1438.592753216
3	233	18.4	1439.9784856765
3	234	18.5	1441.3569407687
3	235	18.6	1442.7361536202
3	236	18.7	1444.1202167484
3	245	18.8	1445.5058774902
3	246	18.9	1446.8885459482
3	247	19	1448.2714341557
3	248	19.1	1449.6545368298
3	249	19.2	1451.0377509841
3	250	19.3	1452.4199785061
3	251	19.4	1453.8002471708
3	252	19.5	1455.1780820406
3	253	19.6	1456.5646117637
3	254	19.7	1457.9533340767
3	255	19.8	1459.3404474639
3	256	19.9	1460.7172698988
3	257	20	1462.0997381993
3	258	20.1	1463.4771124778
3	259	20.2	1464.8605719348
3	260	20.3	1466.2432420925
3	261	20.4	1467.6248575457
3	262	20.5	1469.0118362137
3	263	20.6	1470.3936753182
3	264	20.7	1471.7806125919
3	265	20.8	1473.1677786607
3	266	20.9	1474.555427655
3	267	21	1475.9431973856
3	268	21.1	1477.3206441742
3	269	21.2	1478.7039510488
3	270	21.3	1480.0852575559
3	271	21.4	1481.4737539429
3	272	21.5	1482.8526327521
3	273	21.6	1484.2374737153
3	274	21.7	1485.6197781192
3	275	21.8	1487.00137561
3	276	21.9	1488.382142918
3	277	22	1489.7689421678
3	278	22.1	1491.1566855201
3	279	22.2	1492.5372977629
3	280	22.3	1493.9139696346
3	281	22.4	1495.2933588612
3	282	22.5	1496.678216724
3	283	22.6	1498.0612951771
3	284	22.7	1499.4432301385
3	285	22.8	1500.8251075766
3	294	22.9	1502.2060373788
3	295	23	1503.5936893964
3	296	23.1	1504.9814128423
3	297	23.2	1506.3593486115
3	298	23.3	1507.7415276124
3	299	23.4	1509.1232969499
3	300	23.5	1510.504604047
3	301	23.6	1511.8885618813
3	302	23.7	1513.2646502051
3	303	23.8	1514.6486327806
3	304	23.9	1516.0334505871
3	305	24	1517.4118086819
3	306	24.1	1518.7958721189
3	307	24.2	1520.1742976332
3	308	24.3	1521.5542604011
3	309	24.4	1522.9348684445
3	310	24.5	1524.3126166813
3	311	24.6	1525.6959036874
3	312	24.7	1527.0751560358
3	313	24.8	1528.4514099179
3	314	24.9	1529.8350907925
3	315	25	1531.2181015912
3	316	25.1	1532.6036061667
3	317	25.2	1533.9833925614
3	318	25.3	1535.3706672004
3	333	25.4	1536.756548343
3	334	25.5	1538.1338080598
3	335	25.6	1539.5176487659
3	336	25.7	1540.9050175567
3	337	25.8	1542.2921393958
3	338	25.9	1543.6767708388
3	339	26	1545.0552782624
3	340	26.1	1546.4402757776
3	341	26.2	1547.8245502055
3	342	26.3	1549.2061795433
3	343	26.4	1550.5878978196
3	344	26.5	1551.9722123858
3	345	26.6	1553.3591260618
3	346	26.7	1554.7387723857
3	347	26.8	1556.1196687706
3	348	26.9	1557.5026999453
3	349	27	1558.8866304882
3	350	27.1	1560.2629967594
3	351	27.2	1561.6515941244
3	352	27.3	1563.0385123656
3	353	27.4	1564.4245590426
3	354	27.5	1565.8007239019
3	355	27.6	1567.1769625492
3	356	27.7	1568.5542674877
3	357	27.8	1569.9395050699
3	366	27.9	1571.3280085599
3	367	28	1572.7125732182
3	368	28.1	1574.0992302098
3	369	28.2	1575.4837897603
3	370	28.3	1576.865976862
3	371	28.4	1578.2497969039
3	372	28.5	1579.6263652939
3	373	28.6	1581.0064120139
3	374	28.7	1582.3881323408
3	375	28.8	1583.7750533045
3	376	28.9	1585.1556467136
3	377	29	1586.5385127565
3	378	29.1	1587.9201069482
3	379	29.2	1589.3024206836
3	380	29.3	1590.6857379341
3	381	29.4	1592.074475541
3	382	29.5	1593.4206695548
3	383	29.6	1594.737696201
3	384	29.7	1596.0148373982
3	385	29.8	1597.264643789
3	386	29.9	1598.4709877058
3	395	30	1599.6446810139
3	396	30.1	1600.7914520912
3	397	30.2	1601.9026041962
3	398	30.3	1602.9775536112
3	399	30.4	1604.019210698
3	400	30.5	1605.031328054
3	401	30.6	1606.0115547577
3	402	30.7	1606.9594105193
3	403	30.8	1607.8834198678
3	404	30.9	1608.7737331132
3	405	31	1609.6354944538
3	406	31.1	1610.4702588368
3	407	31.2	1611.272924349
3	408	31.3	1612.0480845378
3	409	31.4	1612.7912781273
3	410	31.5	1613.5026379312
3	411	31.6	1614.1853181583
3	412	31.7	1614.8446369867
3	413	31.8	1615.4776823201
3	414	31.9	1616.0771869106
3	415	32	1616.6467624343
3	416	32.1	1617.1966463836
3	417	32.2	1617.7205609864
3	418	32.3	1618.2200460137
3	419	32.4	1618.6914208933
3	420	32.5	1619.1443568211
3	421	32.6	1619.5702332402
3	422	32.7	1619.981391743
3	423	32.8	1620.3614945935
3	424	32.9	1620.7265054833
3	425	33	1621.0690800433
3	426	33.1	1621.4376517626
3	427	33.2	1621.8322206414
3	428	33.3	1622.2527866795
3	429	33.4	1622.699349877
3	430	33.5	1623.1451831118
3	431	33.6	1623.5565917582
3	432	33.7	1623.9898271003
3	433	33.8	1624.3787067401
3	434	33.9	1624.6377624438
3	435	34	1624.5459397648
3	436	34.1	1624.2519075227
3	437	34.2	1623.7419853753
3	438	34.3	1623.2121794569
3	439	34.4	1622.5722320014
3	440	34.5	1621.8874946409
3	441	34.6	1621.184343571
3	442	34.7	1620.4674241851
3	443	34.8	1619.7322575614
3	444	34.9	1618.9812447947
3	445	35	1618.2141787308
3	446	35.1	1617.4327981243
3	447	35.2	1616.6265932915
3	448	35.3	1615.799362505
3	449	35.4	1614.9483316804
3	450	35.5	1614.0720646003
3	451	35.6	1613.1713060703
3	452	35.7	1612.2572885167
3	453	35.8	1611.3284152296
3	454	35.9	1610.3770707043
3	455	36	1609.4049260369
3	456	36.1	1608.4112650841
3	457	36.2	1607.3965646208
3	458	36.3	1606.3607382787
3	459	36.4	1605.3070435689
3	474	36.5	1604.236084094
3	475	36.6	1603.1432378991
3	476	36.7	1602.0344789056
3	477	36.8	1600.9090028142
3	478	36.9	1599.7627246033
3	479	37	1598.5915571742
3	488	37.1	1597.3947778298
3	489	37.2	1596.180867926
3	490	37.3	1594.9409765935
3	491	37.4	1593.6875447539
3	492	37.5	1592.421011323
3	493	37.6	1591.1395079694
3	494	37.7	1589.8413733125
3	495	37.8	1588.5212369781
3	496	37.9	1587.1786725992
3	497	38	1585.8104353407
3	498	38.1	1584.4282670505
3	499	38.2	1583.0442234571
3	514	38.3	1581.6672212822
3	515	38.4	1580.2900381663
3	516	38.5	1578.9104587624
3	517	38.6	1577.5255339025
3	518	38.7	1576.1421708466
3	519	38.8	1574.7554093038
3	520	38.9	1573.3678057966
3	521	39	1571.9876371217
3	536	39.1	1570.6107245691
3	537	39.2	1569.2278041653
3	538	39.3	1567.8422596998
3	539	39.4	1566.4551278242
3	540	39.5	1565.0729633652
3	541	39.6	1563.6951898106
3	542	39.7	1562.3093730592
3	543	39.8	1560.9302344303
3	544	39.9	1559.5489143154
3	545	40	1558.1689896072
3	546	40.1	1556.7880540171
3	547	40.2	1555.4096414329
3	548	40.3	1554.026193047
3	557	40.4	1552.6495212949
3	558	40.5	1551.2611025367
3	559	40.6	1549.8734766015
3	560	40.7	1548.4921071085
3	561	40.8	1547.1079981713
3	562	40.9	1545.7265848883
3	563	41	1544.3494384939
3	564	41.1	1542.9722302652
3	565	41.2	1541.5922940576
3	566	41.3	1540.2104521454
3	567	41.4	1538.8313102398
3	568	41.5	1537.4487407085
3	569	41.6	1536.0625663469
3	570	41.7	1534.6794108746
3	571	41.8	1533.2944747249
3	572	41.9	1531.9150766654
3	573	42	1530.5363962749
3	574	42.1	1529.1480250869
3	575	42.2	1527.7705881572
3	576	42.3	1526.3854344403
3	577	42.4	1525.0066263545
3	578	42.5	1523.6178147243
3	579	42.6	1522.237727213
3	580	42.7	1520.8492025391
3	581	42.8	1519.472411011
3	582	42.9	1518.0927304872
3	583	43	1516.7108673502
3	584	43.1	1515.329822571
3	585	43.2	1513.9458251236
3	586	43.3	1512.562917539
3	587	43.4	1511.1771020343
3	588	43.5	1509.7924413686
3	589	43.6	1508.4083735522
3	590	43.7	1507.0283409217
3	591	43.8	1505.6416788046
3	592	43.9	1504.2562683222
3	593	44	1502.8685689942
3	594	44.1	1501.4890084237
3	603	44.2	1500.1046092913
3	604	44.3	1498.7243850425
3	605	44.4	1497.3427476611
3	606	44.5	1495.9546463185
3	607	44.6	1494.5725219315
3	608	44.7	1493.1840950096
3	609	44.8	1491.805969766
3	610	44.9	1490.4242194818
3	611	45	1489.0470260049
3	612	45.1	1487.6636626202
3	613	45.2	1486.2794593749
3	614	45.3	1484.9019516255
3	615	45.4	1483.5219978484
3	616	45.5	1482.1446578423
3	617	45.6	1480.7624423449
3	618	45.7	1479.3816741727
3	619	45.8	1478.0010281615
3	620	45.9	1476.6135628943
3	621	46	1475.2323283383
3	622	46.1	1473.8460947548
3	623	46.2	1472.4671368994
3	624	46.3	1471.0875051204
3	625	46.4	1469.7091822424
3	626	46.5	1468.3306878274
3	627	46.6	1466.9457184078
3	628	46.7	1465.5574700899
3	643	46.8	1464.1753942853
3	644	46.9	1462.7896948051
3	645	47	1461.4095474955
3	646	47.1	1460.0321216092
3	647	47.2	1458.6479922033
3	648	47.3	1457.2654684118
3	649	47.4	1455.8840031653
3	650	47.5	1454.5016323553
3	651	47.6	1453.1209455766
3	652	47.7	1451.7375155422
3	653	47.8	1450.3531951087
3	654	47.9	1448.9651205764
3	655	48	1447.5859090944
3	656	48.1	1446.2056322008
3	657	48.2	1444.8188358845
3	658	48.3	1443.4363131024
3	659	48.4	1442.0523485099
3	660	48.5	1440.6708768147
3	661	48.6	1439.2947420773
3	662	48.7	1437.9180379471
3	663	48.8	1436.5363901838
3	664	48.9	1435.1487548297
3	665	49	1433.7692776216
3	666	49.1	1432.3807904948
3	667	49.2	1430.9946214177
3	668	49.3	1429.6061910608
3	669	49.4	1428.2184992115
3	678	49.5	1426.8401710472
3	679	49.6	1425.4531448177
3	680	49.7	1424.0747368041
3	681	49.8	1422.6887041245
3	682	49.9	1421.3088899114
3	683	50	1419.9239424306
3	684	50.1	1418.5393217353
3	685	50.2	1417.1609308719
3	686	50.3	1415.7846020422
3	687	50.4	1414.3993945756
3	688	50.5	1413.0148977448
3	689	50.6	1411.6326976074
3	690	50.7	1410.2552719667
3	691	50.8	1408.8764850119
3	692	50.9	1407.4986000456
3	693	51	1406.1221577358
3	694	51.1	1404.734109916
3	695	51.2	1403.3568549937
3	704	51.3	1401.9804775366
3	705	51.4	1400.5962607311
3	706	51.5	1399.2133448657
3	707	51.6	1397.8351313405
3	708	51.7	1396.4528378255
3	709	51.8	1395.0656220849
3	710	51.9	1393.684314802
3	711	52	1392.300018544
3	712	52.1	1390.9166828762
3	713	52.2	1389.5330898883
3	714	52.3	1388.14489445
3	715	52.4	1386.7649478396
3	716	52.5	1385.3774951071
3	717	52.6	1383.9947428812
3	718	52.7	1382.6174278439
3	719	52.8	1381.2332006134
3	720	52.9	1379.8513073187
3	721	53	1378.4646411958
3	722	53.1	1377.0788296914
3	723	53.2	1375.6927440921
3	724	53.3	1374.3150429456
3	725	53.4	1372.9264752064
3	726	53.5	1371.5380951278
3	727	53.6	1370.1593001622
3	728	53.7	1368.7766831756
3	729	53.8	1367.3986122023
3	730	53.9	1366.0113651565
3	731	54	1364.6310966183
3	732	54.1	1363.2451292072
3	733	54.2	1361.8606950298
3	748	54.3	1360.4726524581
3	749	54.4	1359.0869298195
3	750	54.5	1357.7016893286
3	751	54.6	1356.318553632
3	752	54.7	1354.9301374732
3	753	54.8	1353.5470345536
3	754	54.9	1352.1619486171
3	755	55	1350.7755541125
3	756	55.1	1349.3910524993
3	757	55.2	1348.0029248186
3	758	55.3	1346.6257878904
3	759	55.4	1345.2456010289
3	760	55.5	1343.8592209301
3	761	55.6	1342.4718271558
3	762	55.7	1341.0840312443
3	763	55.8	1339.7039531971
3	764	55.9	1338.4455799351
3	765	56	1337.2041368916
3	766	56.1	1335.9695581712
3	767	56.2	1334.727759734
3	768	56.3	1333.4859354158
3	769	56.4	1332.254201287
3	770	56.5	1331.016678509
3	771	56.6	1329.78107348
3	772	56.7	1328.5411658044
3	773	56.8	1328.0240929641
3	774	56.9	1327.7606797701
3	775	57	1327.4969825328
3	776	57.1	1327.233387478
3	777	57.2	1326.967883782
3	778	57.3	1326.7044086198
3	779	57.4	1326.438760881
3	780	57.5	1326.1741731542
3	781	57.6	1325.910654526
3	782	57.7	1325.6456446442
3	783	57.8	1325.3817573757
3	784	57.9	1325.1180428679
3	785	58	1324.9456143256
3	786	58.1	1325.0487943414
3	787	58.2	1325.1520601976
3	802	58.3	1325.2555943589
3	817	58.4	1325.3587086555
3	818	58.5	1325.4623906955
3	819	58.6	1325.5658056609
3	820	58.7	1325.6692441988
3	821	58.8	1325.7723318499
3	836	58.9	1325.8758733777
3	837	59	1325.9792575054
3	838	59.1	1326.0827268671
3	839	59.2	1326.1857243609
3	840	59.3	1326.2890607015
3	841	59.4	1326.3919297105
3	842	59.5	1326.4954171866
3	843	59.6	1326.5987186212
3	844	59.7	1326.7023885169
3	845	59.8	1326.805361236
3	846	59.9	1326.9083850182
3	847	60	1327.0089876451
3	848	60.1	1327.0262539161
3	849	60.2	1327.0330774318
3	850	60.3	1327.0397620987
3	851	60.4	1327.0462536858
3	852	60.5	1327.0525331223
3	853	60.6	1327.0586276882
3	854	60.7	1327.0646041002
3	869	60.8	1327.0704006439
3	870	60.9	1327.0760051827
3	871	61	1327.0814557593
3	872	61.1	1327.0866819556
3	873	61.2	1327.0917811553
3	874	61.3	1327.0967183338
3	875	61.4	1327.1014481825
3	876	61.5	1327.1060014866
3	877	61.6	1327.1104166241
3	878	61.7	1327.1146630462
3	879	61.8	1327.1187472028
3	880	61.9	1327.1226767089
3	881	62	1327.1264488611
3	882	62.1	1327.1300716403
3	883	62.2	1327.1335809305
3	884	62.3	1327.1369195735
3	885	62.4	1327.1401601374
3	886	62.5	1327.1432108952
3	887	62.6	1327.1461156861
3	888	62.7	1327.1489181868
3	889	62.8	1327.1515843295
3	890	62.9	1327.1540992872
3	891	63	1327.1564997029
3	892	63.1	1327.1587527615
3	907	63.2	1327.1609143249
3	908	63.3	1327.1629205531
3	909	63.4	1327.1648710884
3	910	63.5	1327.1667111985
3	925	63.6	1327.1686909602
3	926	63.7	1327.1708103735
3	927	63.8	1327.1730694385
3	928	63.9	1327.1754681551
3	929	64	1327.1780065234
3	930	64.1	1327.1806845433
3	931	64.2	1327.1835022148
3	932	64.3	1327.186459538
3	933	64.4	1327.1895565129
3	934	64.5	1327.1208718546
3	935	64.6	1327.0381271227
3	936	64.7	1326.9529924283
3	937	64.8	1326.8654932917
3	938	64.9	1326.6781688118
3	939	65	1326.3270817922
3	940	65.1	1325.9644899822
3	941	65.2	1325.5612434146
3	942	65.3	1324.9123735035
3	943	65.4	1324.2497092733
3	958	65.5	1323.5613541509
3	959	65.6	1322.7592283353
3	960	65.7	1321.933313086
3	961	65.8	1321.0944790859
3	962	65.9	1320.2342823619
3	963	66	1319.3573250224
3	964	66.1	1318.4575759422
3	965	66.2	1317.5435673124
3	966	66.3	1316.6118527487
3	967	66.4	1315.6575327637
3	968	66.5	1314.6852756455
3	969	66.6	1313.6927519969
3	970	66.7	1312.6771934546
3	971	66.8	1311.6391079333
3	972	66.9	1310.5823648232
3	973	67	1309.5022896845
3	974	67.1	1308.4010674809
3	975	67.2	1307.2799576018
3	990	67.3	1306.1372479941
3	991	67.4	1304.9798041318
3	1006	67.5	1303.7965943798
3	1007	67.6	1302.5980929132
3	1008	67.7	1301.3767232612
3	1023	67.8	1300.1420531239
3	1024	67.9	1298.8910919032
3	1025	68	1297.6207632885
3	1026	68.1	1296.3328742091
3	1027	68.2	1295.0195422151
3	1028	68.3	1293.6885739391
3	1029	68.4	1292.3351661863
3	1030	68.5	1290.9577579099
3	1031	68.6	1289.5792300396
3	1032	68.7	1288.1973174732
3	1033	68.8	1286.8094714429
3	1034	68.9	1285.4319461376
3	1035	69	1284.0486365914
3	1036	69.1	1282.6669881564
3	1037	69.2	1281.2823683647
3	1038	69.3	1279.8956480064
3	1039	69.4	1278.5134866384
3	1040	69.5	1277.1276744253
3	1041	69.6	1275.7453226151
3	1042	69.7	1274.3630347017
3	1043	69.8	1272.9745547138
3	1044	69.9	1271.5911802407
3	1045	70	1270.2107516394
3	1046	70.1	1268.8304752322
3	1047	70.2	1267.475626869
3	1048	70.3	1266.16316981
3	1049	70.4	1264.8817822626
3	1050	70.5	1263.6354915345
3	1051	70.6	1262.4180552913
3	1052	70.7	1261.2436309086
3	1053	70.8	1260.1042955319
3	1054	70.9	1258.9919496291
3	1055	71	1257.9167306118
3	1056	71.1	1256.873036469
3	1057	71.2	1255.8584000315
3	1058	71.3	1254.8740079263
3	1059	71.4	1253.9250782671
3	1060	71.5	1253.0097138114
3	1061	71.6	1252.1191531773
3	1062	71.7	1251.2552656952
3	1063	71.8	1250.4252136733
3	1064	71.9	1249.6262644247
3	1065	72	1248.8590740097
3	1066	72.1	1248.1189309085
3	1067	72.2	1247.4070430173
3	1068	72.3	1246.7273854815
3	1083	72.4	1246.0765851123
3	1084	72.5	1245.4511104796
3	1099	72.6	1244.8446920778
3	1100	72.7	1244.2671216311
3	1101	72.8	1243.7224628995
3	1102	72.9	1243.2022743146
3	1103	73	1242.7031123468
3	1104	73.1	1242.2269383304
3	1105	73.2	1241.7710180794
3	1106	73.3	1241.3410437102
3	1107	73.4	1240.9397785536
3	1108	73.5	1240.5617783653
3	1109	73.6	1240.1944742595
3	1110	73.7	1239.8594979555
3	1111	73.8	1239.5325513
3	1112	73.9	1239.2256255907
3	1113	74	1238.9468088254
3	1114	74.1	1238.676382113
3	1115	74.2	1238.4302682112
3	1116	74.3	1238.2007721247
3	1117	74.4	1237.9898261991
3	1118	74.5	1237.7887689343
3	1133	74.6	1237.599150698
3	1134	74.7	1237.4291242478
3	1135	74.8	1237.2702591583
3	1136	74.9	1237.1189081198
3	1137	75	1236.9811142507
3	1138	75.1	1236.8554486353
3	1139	75.2	1236.7388132027
3	1140	75.3	1236.6303186594
3	1141	75.4	1236.531717553
3	1142	75.5	1236.442683585
3	1143	75.6	1236.3586586315
3	1144	75.7	1236.2822554799
3	1145	75.8	1236.2117182171
3	1146	75.9	1236.1500930268
3	1147	76	1236.0934269723
3	1149	76.1	1236.0421220485
3	1150	76.2	1236.0358171248
3	1151	76.3	1236.0358171248
3	1152	76.4	1236.0358171248
3	1153	76.5	1236.0358171248
3	1154	76.6	1236.0358171248
3	1155	76.7	1236.0358171248
3	1156	76.8	1236.0358171248
3	1157	76.9	1236.0358171248
3	1158	77	1236.0358171248
3	1159	77.1	1236.0358171248
3	1160	77.2	1236.0358171248
3	1161	77.3	1236.0358171248
3	1162	77.4	1236.0358171248
3	1163	77.5	1236.0358171248
3	1178	77.6	1236.0358171248
3	1193	77.7	1236.0358171248
3	1194	77.8	1236.0358171248
3	1195	77.9	1236.0358171248
3	1196	78	1236.0358171248
3	1197	78.1	1236.0358171248
3	1198	78.2	1236.0358171248
3	1199	78.3	1236.0358171248
3	1200	78.4	1236.0358171248
3	1201	78.5	1236.0358171248
3	1202	78.6	1236.0358171248
3	1203	78.7	1236.0358171248
3	1204	78.8	1236.0358171248
3	1205	78.9	1236.0358171248
3	1206	79	1236.0358171248
3	1207	79.1	1236.0358171248
3	1208	79.2	1236.0358171248
3	1209	79.3	1236.0358171248
3	1210	79.4	1236.0358171248
3	1211	79.5	1236.0358171248
3	1212	79.6	1236.0358171248
3	1227	79.7	1236.0358171248
3	1228	79.8	1236.0358171248
3	1229	79.9	1236.0358171248
3	1230	80	1236.0358171248
3	1231	80.1	1236.0358171248
3	1232	80.2	1236.0358171248
3	1233	80.3	1236.0358171248
3	1234	80.4	1236.0358171248
3	1249	80.5	1236.0358171248
3	1250	80.6	1236.0358171248
3	1251	80.7	1236.0358171248
3	1252	80.8	1236.0358171248
3	1253	80.9	1236.0358171248
3	1254	81	1236.0358171248
3	1255	81.1	1236.0358171248
3	1256	81.2	1236.0358171248
3	1257	81.3	1236.0358171248
3	1258	81.4	1236.0358171248
3	1259	81.5	1236.0358171248
3	1260	81.6	1236.0358171248
3	1261	81.7	1236.0358171248
3	1262	81.8	1236.0358171248
3	1263	81.9	1236.0358171248
3	1264	82	1236.0358171248
3	1265	82.1	1236.0358171248
3	1266	82.2	1236.0358171248
3	1267	82.3	1236.0358171248
3	1268	82.4	1236.0358171248
3	1269	82.5	1236.0358171248
3	1270	82.6	1236.0358171248
3	1271	82.7	1236.0358171248
3	1272	82.8	1236.0358171248
3	1273	82.9	1236.0358171248
3	1274	83	1236.0358171248
3	1275	83.1	1236.0358171248
3	1276	83.2	1236.0358171248
3	1277	83.3	1236.0358171248
3	1278	83.4	1236.0358171248
3	1279	83.5	1236.0358171248
3	1280	83.6	1236.0358171248
3	1281	83.7	1236.0358171248
3	1282	83.8	1236.0358171248
3	1283	83.9	1236.0358171248
3	1284	84	1236.0358171248
3	1285	84.1	1236.0358171248
3	1286	84.2	1236.0358171248
3	1287	84.3	1236.0358171248
3	1288	84.4	1236.0358171248
3	1289	84.5	1236.0358171248
3	1290	84.6	1236.0358171248
3	1291	84.7	1236.0358171248
3	1292	84.8	1236.0358171248
3	1293	84.9	1236.0358171248
3	1294	85	1236.0358171248
3	1295	85.1	1236.0358171248
3	1296	85.2	1236.0358171248
3	1311	85.3	1236.0358171248
3	1312	85.4	1236.0358171248
3	1313	85.5	1236.0358171248
3	1314	85.6	1236.0358171248
3	1315	85.7	1236.0358171248
3	1316	85.8	1236.0358171248
3	1317	85.9	1236.0358171248
3	1318	86	1236.0358171248
3	1319	86.1	1236.0358171248
3	1320	86.2	1236.0358171248
3	1321	86.3	1236.0358171248
3	1322	86.4	1236.0358171248
3	1323	86.5	1236.0358171248
3	1324	86.6	1236.0358171248
3	1325	86.7	1236.0358171248
3	1340	86.8	1236.0358171248
3	1341	86.9	1236.0358171248
3	1342	87	1236.0358171248
3	1343	87.1	1236.0358171248
3	1344	87.2	1236.0358171248
3	1345	87.3	1236.0358171248
3	1346	87.4	1236.0358171248
3	1347	87.5	1236.0358171248
3	1348	87.6	1236.0358171248
3	1349	87.7	1236.0358171248
3	1350	87.8	1236.0358171248
3	1351	87.9	1236.0358171248
3	1352	88	1236.0358171248
3	1353	88.1	1236.0358171248
3	1354	88.2	1236.0358171248
3	1355	88.3	1236.0358171248
3	1356	88.4	1236.0358171248
3	1357	88.5	1236.0358171248
3	1358	88.6	1236.0358171248
3	1359	88.7	1236.0358171248
3	1360	88.8	1236.0358171248
3	1361	88.9	1236.0358171248
3	1362	89	1236.0358171248
3	1363	89.1	1236.0358171248
3	1364	89.2	1236.0358171248
3	1365	89.3	1236.0358171248
3	1366	89.4	1236.0358171248
3	1367	89.5	1236.0358171248
3	1368	89.6	1236.0358171248
3	1369	89.7	1236.0358171248
3	1370	89.8	1236.0358171248
3	1371	89.9	1236.0358171248
3	1372	90	1236.0358171248
3	1373	90.1	1236.0358171248
3	1374	90.2	1236.0358171248
3	1375	90.3	1236.0358171248
3	1376	90.4	1236.0358171248
3	1377	90.5	1236.0358171248
3	1378	90.6	1236.0358171248
3	1379	90.7	1236.0358171248
3	1380	90.8	1236.0358171248
3	1381	90.9	1236.0358171248
3	1382	91	1236.0358171248
3	1397	91.1	1236.0358171248
3	1398	91.2	1236.0358171248
3	1399	91.3	1236.0358171248
3	1400	91.4	1236.0358171248
3	1401	91.5	1236.0358171248
3	1402	91.6	1236.0358171248
3	1403	91.7	1236.0358171248
3	1404	91.8	1236.0358171248
3	1405	91.9	1236.0358171248
3	1406	92	1236.0358171248
3	1407	92.1	1236.0358171248
3	1408	92.2	1236.0358171248
3	1429	92.3	1236.0358171248
3	1430	92.4	1236.0358171248
3	1431	92.5	1236.0358171248
3	1432	92.6	1236.0358171248
3	1433	92.7	1236.0358171248
3	1434	92.8	1236.0358171248
3	1435	92.9	1236.0358171248
3	1436	93	1236.0358171248
3	1437	93.1	1236.0358171248
3	1438	93.2	1236.0358171248
3	1439	93.3	1236.0358171248
3	1440	93.4	1236.0358171248
3	1441	93.5	1236.0358171248
3	1442	93.6	1236.0358171248
3	1443	93.7	1236.0358171248
3	1444	93.8	1236.0358171248
3	1465	93.9	1236.0358171248
3	1466	94	1236.0358171248
3	1467	94.1	1236.0358171248
3	1468	94.2	1236.0358171248
3	1469	94.3	1236.0358171248
3	1470	94.4	1236.0358171248
3	1471	94.5	1236.0358171248
3	1472	94.6	1236.0358171248
3	1473	94.7	1236.0358171248
3	1474	94.8	1236.0358171248
3	1475	94.9	1236.0358171248
3	1476	95	1236.0358171248
3	1491	95.1	1236.0358171248
3	1492	95.2	1236.0358171248
3	1493	95.3	1236.0358171248
3	1494	95.4	1236.0358171248
3	1495	95.5	1236.0358171248
3	1496	95.6	1236.0358171248
3	1497	95.7	1236.0358171248
3	1498	95.8	1236.0358171248
3	1499	95.9	1236.0358171248
3	1500	96	1236.0358171248
3	1501	96.1	1236.0358171248
3	1502	96.2	1236.0358171248
3	1503	96.3	1236.0358171248
3	1504	96.4	1236.0358171248
3	1505	96.5	1236.0358171248
3	1506	96.6	1236.0358171248
3	1507	96.7	1236.0358171248
3	1508	96.8	1236.0358171248
3	1509	96.9	1236.0358171248
3	1510	97	1236.0358171248
3	1511	97.1	1236.0358171248
3	1532	97.2	1236.0358171248
3	1533	97.3	1236.0358171248
3	1534	97.4	1236.0358171248
3	1535	97.5	1236.0358171248
3	1536	97.6	1236.0358171248
3	1537	97.7	1236.0358171248
3	1538	97.8	1236.0358171248
3	1539	97.9	1236.0358171248
3	1540	98	1236.0358171248
3	1541	98.1	1236.0358171248
3	1542	98.2	1236.0358171248
3	1543	98.3	1236.0358171248
3	1544	98.4	1236.0358171248
3	1545	98.5	1236.0358171248
3	1546	98.6	1236.0358171248
3	1547	98.7	1236.0358171248
3	1548	98.8	1236.0358171248
3	1549	98.9	1236.0358171248
3	1550	99	1236.0358171248
3	1551	99.1	1236.0358171248
3	1552	99.2	1236.0358171248
3	1553	99.3	1236.0358171248
3	1554	99.4	1236.0358171248
3	1555	99.5	1236.0358171248
3	1556	99.6	1236.0358171248
3	1557	99.7	1236.0358171248
3	1558	99.8	1236.0358171248
3	1559	99.9	1236.0358171248
3	1560	100	1236.0358171248
3	1561	100.1	1236.0358171248
3	1588	100.2	1236.0358171248
3	1589	100.3	1236.0358171248
3	1590	100.4	1236.0358171248
3	1591	100.5	1236.0358171248
3	1592	100.6	1236.0358171248
3	1593	100.7	1236.0358171248
3	1594	100.8	1236.0358171248
3	1595	100.9	1236.0358171248
3	1596	101	1236.0358171248
3	1597	101.1	1236.0358171248
3	1598	101.2	1236.0358171248
3	1599	101.3	1236.0358171248
3	1600	101.4	1236.0358171248
3	1601	101.5	1236.0358171248
3	1602	101.6	1236.0358171248
3	1603	101.7	1236.0358171248
3	1604	101.8	1236.0358171248
3	1605	101.9	1236.0358171248
3	1606	102	1236.0358171248
3	1607	102.1	1236.0358171248
3	1608	102.2	1236.0358171248
3	1629	102.3	1236.0358171248
3	1630	102.4	1236.0358171248
3	1631	102.5	1236.0358171248
3	1632	102.6	1236.0358171248
3	1679	102.7	1236.0358171248
3	1680	102.8	1236.0358171248
3	1681	102.9	1236.0358171248
3	1682	103	1236.0358171248
3	1683	103.1	1236.0358171248
3	1684	103.2	1236.0358171248
3	1685	103.3	1236.0358171248
3	1686	103.4	1236.0358171248
3	1687	103.5	1236.0358171248
3	1688	103.6	1236.0358171248
3	1689	103.7	1236.0358171248
3	1690	103.8	1236.0358171248
3	1691	103.9	1236.0358171248
3	1692	104	1236.0358171248
3	1693	104.1	1236.0358171248
3	1694	104.2	1236.0358171248
3	1695	104.3	1236.0358171248
3	1696	104.4	1236.0358171248
3	1697	104.5	1236.0358171248
3	1698	104.6	1236.0358171248
3	1699	104.7	1236.0358171248
3	1760	104.8	1236.0358171248
3	1761	104.9	1236.0358171248
3	1762	105	1236.0358171248
3	1763	105.1	1236.0358171248
3	1764	105.2	1236.0358171248
3	1765	105.3	1236.0358171248
3	1766	105.4	1236.0358171248
3	1767	105.5	1236.0358171248
3	1768	105.6	1236.0358171248
3	1769	105.7	1236.0358171248
3	1770	105.8	1236.0358171248
3	1771	105.9	1236.0358171248
3	1772	106	1236.0358171248
3	1774	106.1	1236.0358171248
3	1775	106.2	1236.0098171248
3	1776	106.3	1235.9578171248
3	1777	106.4	1235.8798171248
3	1778	106.5	1235.7758171248
3	1779	106.6	1235.6458171248
3	1780	106.7	1235.4898171248
3	1781	106.8	1235.3163953591
3	1782	106.9	1235.1207746228
3	1783	107	1234.9082457966
3	1784	107.1	1234.6801660473
3	1785	107.2	1234.4340322725
3	1786	107.3	1234.1648915046
3	1787	107.4	1233.8760554977
3	1808	107.5	1233.5644649505
3	1809	107.6	1233.2380793078
3	1810	107.7	1232.8975496931
3	1811	107.8	1232.5427973854
3	1812	107.9	1232.1697724705
3	1813	108	1231.7804975534
3	1814	108.1	1231.3890014491
3	1815	108.2	1230.9909005165
3	1816	108.3	1230.5749871134
3	1817	108.4	1230.1429262702
3	1818	108.5	1229.6896125287
3	1819	108.6	1229.2140554833
3	1820	108.7	1228.7645145729
3	1821	108.8	1228.4086735355
3	1822	108.9	1228.0385077327
3	1823	109	1227.6599252766
3	1824	109.1	1227.2682866425
3	1825	109.2	1227.0973451405
3	1826	109.3	1226.9699770935
3	1847	109.4	1226.8400151746
3	1848	109.5	1226.7053304834
3	1849	109.6	1226.6381876644
3	1850	109.7	1226.6346240351
3	1851	109.8	1226.6309849268
3	1852	109.9	1226.6272211561
3	1853	110	1226.6233734316
3	1854	110.1	1226.6194411218
3	1855	110.2	1226.6153826897
3	1856	110.3	1226.6112206171
3	1857	110.4	1226.6069925644
3	1858	110.5	1226.6026464113
3	1859	110.6	1226.5982350905
3	1860	110.7	1226.593743455
3	1861	110.8	1226.5891543406
3	1862	110.9	1226.5844490956
3	1863	111	1226.579663396
3	1864	111.1	1226.5747903467
3	1865	111.2	1226.5698507217
3	1866	111.3	1226.5648225663
3	1867	111.4	1226.5597012532
3	1868	111.5	1226.5544925611
3	1869	111.6	1226.5491982926
3	1870	111.7	1226.5438062197
3	1871	111.8	1226.5383474097
3	1872	111.9	1226.5327865265
3	1873	112	1226.5271228083
3	1874	112.1	1226.5213437145
3	1875	112.2	1226.5154671562
3	1876	112.3	1226.5094836063
3	1877	112.4	1226.503425554
3	1878	112.5	1226.4972922521
3	1879	112.6	1226.4910731433
3	1880	112.7	1226.4847767987
3	1881	112.8	1226.4783895739
3	1882	112.9	1226.4719216093
3	1883	113	1226.4653617176
3	1884	113.1	1226.4587353217
3	1885	113.2	1226.4520092222
3	1886	113.3	1226.4451929541
3	1887	113.4	1226.43826331
3	1888	113.5	1226.4312647936
3	1889	113.6	1226.4241457585
3	1890	113.7	1226.4169343975
3	1891	113.8	1226.409623543
3	1892	113.9	1226.4022435671
3	1893	114	1226.3947582408
3	1914	114.1	1226.3871551111
3	1915	114.2	1226.3794838782
3	1916	114.3	1226.3717223557
3	1917	114.4	1226.3638542954
3	1918	114.5	1226.3558900205
3	1919	114.6	1226.3478140062
3	1920	114.7	1226.3396182862
3	1921	114.8	1226.3313358709
3	1942	114.9	1226.3229546983
3	1943	115	1226.3144646315
3	1944	115.1	1226.3058982808
3	1945	115.2	1226.2972339616
3	1946	115.3	1226.2884973784
3	1947	115.4	1226.2797778833
3	1948	115.5	1226.2710650083
3	1949	115.6	1226.2622951871
3	1976	115.7	1226.2535826102
3	1977	115.8	1226.2448210907
3	1978	115.9	1226.2360918206
3	1979	116	1226.2273211772
3	1980	116.1	1226.2185779496
3	1981	116.2	1226.2098495496
3	1982	116.3	1226.2011340782
3	1983	116.4	1226.1923846052
3	1984	116.5	1226.1836605101
3	1985	116.6	1226.1749333518
3	1986	116.7	1226.1662198973
3	1987	116.8	1226.1574749374
3	2008	116.9	1226.1487128957
3	2009	117	1226.1399849316
3	2010	117.1	1226.1312156492
3	2011	117.2	1226.122467499
3	2012	117.3	1226.1137311075
3	2013	117.4	1226.1049743069
3	2014	117.5	1226.0962220937
3	2015	117.6	1226.0875079489
3	2016	117.7	1226.0787466597
3	2017	117.8	1226.0699850699
3	2018	117.9	1226.0612593198
3	2019	118	1226.0525298217
3	2020	118.1	1226.0437649972
3	2021	118.2	1226.0350453251
3	2022	118.3	1226.0263324233
3	2023	118.4	1226.0175769293
3	2024	118.5	1226.0088277436
3	2025	118.6	1226.0001136705
3	2026	118.7	1225.9913741822
3	2027	118.8	1225.9826030195
3	2028	118.9	1225.9738846046
3	2029	119	1225.9651439057
3	2030	119.1	1225.9563775524
3	2031	119.2	1225.9476491749
3	2032	119.3	1225.9389069568
3	2033	119.4	1225.9301350027
3	2034	119.5	1225.921367497
3	2035	119.6	1225.9126567159
3	2036	119.7	1225.9039306025
3	2037	119.8	1225.8951670794
3	2038	119.9	1225.8864327295
3	2039	120	1225.8777183281
3	2060	120.1	1225.8689607946
3	2061	120.2	1225.8601867723
3	2062	120.3	1225.86
3	2063	120.4	1225.86
3	2064	120.5	1225.86
3	2065	120.6	1225.86
3	2066	120.7	1225.86
3	2067	120.8	1225.8661912469
3	2068	120.9	1225.8769753492
3	2069	121	1225.8877433281
3	2070	121.1	1225.8984706481
3	2071	121.2	1225.9092484595
3	2072	121.3	1225.9200256667
3	2073	121.4	1225.9308029763
3	2074	121.5	1225.9415850956
3	2075	121.6	1225.9523164716
3	2076	121.7	1225.9630814523
3	2077	121.8	1225.9738773525
3	2078	121.9	1225.9846736412
3	2099	122	1225.9954680733
3	2100	122.1	1226.0062436679
3	2101	122.2	1226.0170063238
3	2102	122.3	1226.0278004333
3	2103	122.4	1226.0385444074
3	2104	122.5	1226.0493356965
3	2105	122.6	1226.0600702372
3	2106	122.7	1226.0708087448
4	21	1.2	0.25286542447004
4	22	1.3	0.49766294917859
4	23	1.4	0.73056932500431
4	24	1.5	0.94875413759194
4	25	1.6	1.1723245016953
4	26	1.7	1.3708816750736
4	27	1.8	1.5864496756212
4	28	1.9	1.7682292908497
4	29	2	1.985265837447
4	30	2.1	2.1752625241973
4	39	2.2	2.3566164375431
4	40	2.3	2.5597301002461
4	41	2.4	2.7037996100177
4	42	2.5	2.8385234506903
4	43	2.6	3.0486760529186
4	44	2.7	3.2057517985729
4	45	2.8	3.3969954587737
4	46	2.9	3.5831496654855
4	47	3	3.722822103166
4	48	3.1	3.9735874155335
4	57	3.2	4.2222606069277
4	58	3.3	4.4343892070706
4	59	3.4	4.593228828675
4	60	3.5	4.7401174860363
4	61	3.6	4.8962268727375
4	62	3.7	5.088564800274
4	63	3.8	5.3331891251853
4	64	3.9	5.5175265523241
4	65	4	5.6547195929041
4	66	4.1	5.9009516040687
4	75	4.2	6.1367283992781
4	76	4.3	6.368576852906
4	77	4.4	6.58643852237
4	78	4.5	6.8175367422527
4	79	4.6	6.9601989409732
4	80	4.7	7.1405006909332
4	81	4.8	7.387594245233
4	82	4.9	7.5626860410473
4	83	5	7.7761262589213
4	84	5.1	7.9571082722497
4	85	5.2	8.2121129669304
4	86	5.3	8.3474495619265
4	87	5.4	8.5248919079089
4	88	5.5	8.7092513647218
4	89	5.6	8.9075406890557
4	90	5.7	9.1235996987796
4	91	5.8	9.3423634719601
4	92	5.9	9.4789192352778
4	93	6	9.7371549218343
4	94	6.1	9.9095791697976
4	95	6.2	10.055414018886
4	96	6.3	10.308171108806
4	97	6.4	10.565572711402
4	98	6.5	10.69822643644
4	99	6.6	10.895710276729
4	100	6.7	11.04124841062
4	101	6.8	11.273061533308
4	102	6.9	11.42059819999
4	103	7	11.561424215635
4	104	7.1	11.810619592372
4	105	7.2	12.069403221145
4	106	7.3	12.24527058313
4	107	7.4	12.470855661769
4	108	7.5	12.658988868828
4	109	7.6	12.870913816382
4	110	7.7	13.056863423813
4	111	7.8	13.279361487595
4	112	7.9	13.441067617709
4	113	8	13.5845826271
4	114	8.1	13.728680551093
4	115	8.2	13.831604294851
4	116	8.3	13.874893751706
4	117	8.4	13.836463381562
4	118	8.5	13.857526484244
4	119	8.6	13.764495891579
4	120	8.7	13.80424310616
4	121	8.8	13.860030706993
4	122	8.9	13.809554887069
4	123	9	13.828882815507
4	124	9.1	13.852561169502
4	125	9.2	13.792607921313
4	126	9.3	13.876627763205
4	127	9.4	13.843973933624
4	128	9.5	13.885628737812
4	129	9.6	13.848270358313
4	130	9.7	13.871635692625
4	131	9.8	13.762074509396
4	132	9.9	13.820187072752
4	133	10	13.877056018973
4	134	10.1	13.828997607683
4	135	10.2	13.772395793246
4	136	10.3	13.823918991464
4	137	10.4	13.788723367637
4	138	10.5	13.836518425827
4	139	10.6	13.885681089771
4	140	10.7	13.841472202141
4	141	10.8	13.883423545337
4	142	10.9	13.887838363971
4	143	11	13.790561479267
4	144	11.1	13.792500097796
4	145	11.2	13.82635863753
4	146	11.3	13.86666626516
4	147	11.4	13.829751373096
4	148	11.5	13.767264432372
4	149	11.6	13.812434796335
4	150	11.7	13.824996581806
4	151	11.8	13.799117249912
4	152	11.9	13.855255870579
4	153	12	13.777643412477
4	154	12.1	13.764616330459
4	155	12.2	13.862389234742
4	156	12.3	13.861562582178
4	157	12.4	13.831225825043
4	158	12.5	13.801529189756
4	159	12.6	13.882665616502
4	160	12.7	13.775469407376
4	161	12.8	13.809704470506
4	162	12.9	13.778900234201
4	163	13	13.827782477564
4	164	13.1	13.811084142076
4	165	13.2	13.828965365621
4	166	13.3	13.772165648453
4	167	13.4	13.860201488007
4	168	13.5	13.772424752957
4	169	13.6	13.847791213559
4	170	13.7	13.889992804453
4	171	13.8	13.834691300143
4	172	13.9	13.801615670864
4	173	14	13.827156879718
4	174	14.1	13.860172562227
4	175	14.2	13.849219988333
4	176	14.3	13.828672295143
4	177	14.4	13.870019740548
4	178	14.5	13.805985623447
4	179	14.6	13.865760431581
4	180	14.7	13.792879668784
4	181	14.8	13.854003812219
4	182	14.9	13.798418345975
4	183	15	13.780744290403
4	184	15.1	13.868555346713
4	185	15.2	13.796129514102
4	186	15.3	13.792890749106
4	187	15.4	13.861731435726
4	188	15.5	13.794879811408
4	189	15.6	13.86280958636
4	190	15.7	13.801955770131
4	199	15.8	13.817765599159
4	200	15.9	13.781705047691
4	201	16	13.798545677904
4	202	16.1	13.823388849485
4	211	16.2	13.78761952006
4	212	16.3	13.861607629745
4	213	16.4	13.775746933944
4	214	16.5	13.796977050183
4	215	16.6	13.797888740648
4	216	16.7	13.780208489886
4	217	16.8	13.789467618067
4	218	16.9	13.777899728513
4	219	17	13.761945803543
4	220	17.1	13.889473746277
4	221	17.2	13.836636021605
4	222	17.3	13.851280563166
4	223	17.4	13.874314590455
4	224	17.5	13.837204336626
4	225	17.6	13.845331285067
4	226	17.7	13.836521586017
4	227	17.8	13.838065140799
4	228	17.9	13.789221428307
4	229	18	13.847709659806
4	230	18.1	13.888186708237
4	231	18.2	13.850404336064
4	232	18.3	13.857419046431
4	233	18.4	13.784644867647
4	234	18.5	13.79222251266
4	235	18.6	13.840725609574
4	236	18.7	13.856701854216
4	245	18.8	13.828057963494
4	246	18.9	13.830393108015
4	247	19	13.832538008483
4	248	19.1	13.833652933082
4	249	19.2	13.823785531449
4	250	19.3	13.804194817981
4	251	19.4	13.779854208827
4	252	19.5	13.866812244044
4	253	19.6	13.888740537425
4	254	19.7	13.872649522612
4	255	19.8	13.769728754109
4	256	19.9	13.826193579829
4	257	20	13.775247792676
4	258	20.1	13.83610622786
4	259	20.2	13.828212372223
4	260	20.3	13.817664174566
4	261	20.4	13.871302182244
4	262	20.5	13.8199009324
4	263	20.6	13.870888194137
4	264	20.7	13.873176396103
4	265	20.8	13.878006177896
4	266	20.9	13.879213673188
4	267	21	13.775972974126
4	268	21.1	13.834580235863
4	269	21.2	13.814574375993
4	270	21.3	13.886481031717
4	271	21.4	13.790294744205
4	272	21.5	13.849922798777
4	273	21.6	13.824554434547
4	274	21.7	13.817484531056
4	275	21.8	13.809181796215
4	276	21.9	13.869507804762
4	277	22	13.878949860954
4	278	22.1	13.807630974604
4	279	22.2	13.768222957971
4	280	22.3	13.795399476185
4	281	22.4	13.850091813169
4	282	22.5	13.83229577163
4	283	22.6	13.820859606343
4	284	22.7	13.820284310132
4	285	22.8	13.810806914859
4	294	22.9	13.878036414159
4	295	23	13.878750776318
4	296	23.1	13.78086331377
4	297	23.2	13.823300267356
4	298	23.3	13.819203186033
4	299	23.4	13.814580276464
4	300	23.5	13.841090544418
4	301	23.6	13.762386841571
4	302	23.7	13.84133798464
4	303	23.8	13.849691206296
4	304	23.9	13.7850870311
4	305	24	13.842146687654
4	306	24.1	13.78576130047
4	307	24.2	13.801135514886
4	308	24.3	13.807588976172
4	309	24.4	13.77898778504
4	310	24.5	13.834381530213
4	311	24.6	13.794030544483
4	312	24.7	13.764042605339
4	313	24.8	13.838320645229
4	314	24.9	13.831619154494
4	315	25	13.856559647147
4	316	25.1	13.799371590659
4	317	25.2	13.874262215977
4	318	25.3	13.86032573021
4	333	25.4	13.774102051274
4	334	25.5	13.839919134979
4	335	25.6	13.875203836907
4	336	25.7	13.872734049982
4	337	25.8	13.847827368029
4	338	25.9	13.786580482896
4	339	26	13.851488489716
4	340	26.1	13.844256826704
4	341	26.2	13.817803036175
4	342	26.3	13.818692517537
4	343	26.4	13.844658254294
4	344	26.5	13.87065219146
4	345	26.6	13.797970729987
4	346	26.7	13.810472705711
4	347	26.8	13.831822937024
4	348	26.9	13.840817601392
4	349	27	13.765166618263
4	350	27.1	13.887490921419
4	351	27.2	13.870697849139
4	352	27.3	13.861981254104
4	353	27.4	13.763152280438
4	354	27.5	13.763890240183
4	355	27.6	13.774554318241
4	356	27.7	13.853889422487
4	357	27.8	13.886552068344
4	366	27.9	13.847159448096
4	367	28	13.86808506733
4	368	28.1	13.847108365062
4	369	28.2	13.823381284154
4	370	28.3	13.839712470362
4	371	28.4	13.767188027778
4	372	28.5	13.801975127989
4	373	28.6	13.818713026245
4	374	28.7	13.870725076764
4	375	28.8	13.807442616639
4	376	28.9	13.830171437985
4	377	29	13.817451537228
4	378	29.1	13.824647759215
4	379	29.2	13.834684007315
4	380	29.3	13.888893493533
4	381	29.4	13.463411076834
4	382	29.5	13.171705530405
4	383	29.6	12.772807459939
4	384	29.7	12.499429526698
4	385	29.8	12.06475729764
4	386	29.9	11.738215534953
4	395	30	11.468963808709
4	396	30.1	11.112735167411
4	397	30.2	10.750668708854
4	398	30.3	10.417709049974
4	399	30.4	10.122279465166
4	400	30.5	9.8033380963433
4	401	30.6	9.4795933046786
4	402	30.7	9.2411031172891
4	403	30.8	8.9041052684057
4	404	30.9	8.6185550220744
4	405	31	8.3485559480773
4	406	31.1	8.0275321659862
4	407	31.2	7.75244887846
4	408	31.3	7.4327479561417
4	409	31.4	7.1143753167228
4	410	31.5	6.8275482121558
4	411	31.6	6.5939086982681
4	412	31.7	6.3311450401011
4	413	31.8	5.9957009631467
4	414	31.9	5.6963775921392
4	415	32	5.49944033145
4	416	32.1	5.2397184914211
4	417	32.2	4.9953960421101
4	418	32.3	4.7142638510823
4	419	32.4	4.5298541848263
4	420	32.5	4.2592295312275
4	421	32.6	4.1120342871388
4	422	32.7	3.8014438296934
4	423	32.8	3.6505077325076
4	424	32.9	3.4261199188953
4	425	33	3.6861199188953
4	426	33.1	3.9461199188953
4	427	33.2	4.2061199188953
4	428	33.3	4.4661199188953
4	429	33.4	4.6407073480076
4	430	33.5	4.9007073480076
4	431	33.6	5.1607073480076
4	432	33.7	5.4207073480076
4	433	33.8	5.6807073480076
4	434	33.9	5.8250341729004
4	435	34	6.0496443555317
4	436	34.1	6.2101591790024
4	437	34.2	6.4523165033384
4	438	34.3	6.6444569882773
4	439	34.4	6.848130752663
4	440	34.5	7.0322882084897
4	441	34.6	7.1699865928222
4	442	34.7	7.3524791474616
4	443	34.8	7.5109580998587
4	444	34.9	7.6715088220964
4	445	35	7.8146700763655
4	446	35.1	8.0629397886967
4	447	35.2	8.2732225758232
4	448	35.3	8.5112492734659
4	449	35.4	8.7636397335654
4	450	35.5	9.0085813131345
4	451	35.6	9.1411862115561
4	452	35.7	9.2897599721978
4	453	35.8	9.5144972022086
4	454	35.9	9.7225216237618
4	455	36	9.9377082678814
4	456	36.1	10.148126638201
4	457	36.2	10.359408786825
4	458	36.3	10.538112221016
4	459	36.4	10.710778961868
4	474	36.5	10.929670363574
4	475	36.6	11.088815945338
4	476	36.7	11.256005409269
4	477	36.8	11.464049606712
4	478	36.9	11.712969308798
4	479	37	11.969116783279
4	488	37.1	12.140441319272
4	489	37.2	12.400284334889
4	490	37.3	12.535704378323
4	491	37.4	12.666734778245
4	492	37.5	12.816450558507
4	493	37.6	12.982781980915
4	494	37.7	13.202823085436
4	495	37.8	13.427128328937
4	496	37.9	13.683885514114
4	497	38	13.823211234475
4	498	38.1	13.841966339808
4	499	38.2	13.771544369212
4	514	38.3	13.773353979995
4	515	38.4	13.797319508991
4	516	38.5	13.850779979175
4	517	38.6	13.83516021332
4	518	38.7	13.869148839461
4	519	38.8	13.87756941519
4	520	38.9	13.803212870199
4	521	39	13.770648046711
4	536	39.1	13.830733203106
4	537	39.2	13.856976720288
[...]
27	663	48.8	0.973
27	664	48.9	2.8996444720668
27	665	49	5.7553472296188
27	666	49.1	0.973
27	667	49.2	3.0289656673251
27	668	49.3	2.024857089016
27	669	49.4	2.3246468978571
27	678	49.5	1.5068289524016
27	679	49.6	6.793367430405
27	680	49.7	0.973
27	681	49.8	5.9679525174417
27	682	49.9	0.973
27	683	50	5.7618058306492
27	684	50.1	0.973
27	685	50.2	5.152896288993
27	686	50.3	0.973
27	687	50.4	5.009975357896
27	688	50.5	1.2390065699492
27	689	50.6	2.8294458252661
27	690	50.7	2.3846042838437
27	691	50.8	3.4076412082835
27	692	50.9	3.2912070559876
27	693	51	0.973
27	694	51.1	1.6537487852367
27	695	51.2	6.4286347677825
27	704	51.3	0.973
27	705	51.4	4.225845583159
27	706	51.5	1.975620754032
27	707	51.6	0.81221809877382
27	708	51.7	1.2934380497914
27	709	51.8	3.8636041544973
27	710	51.9	2.8647730476625
27	711	52	0.973
27	712	52.1	2.8364883546996
27	713	52.2	5.0007776567521
27	714	52.3	1.4644663434608
27	715	52.4	4.7893998584921
27	716	52.5	0.973
27	717	52.6	3.94495665065
27	718	52.7	6.2369661168221
27	719	52.8	0.973
27	720	52.9	1.5346026656429
27	721	53	7.2541258168442
27	722	53.1	0.973
27	723	53.2	7.2352306182759
27	724	53.3	0.973
27	725	53.4	2.7450922054698
27	726	53.5	3.4353386203991
27	727	53.6	0.973
27	728	53.7	3.2298055801155
27	729	53.8	0.973
27	730	53.9	3.0433612846582
27	731	54	6.206259556638
27	732	54.1	2.8116475343648
27	733	54.2	2.8423820329791
27	748	54.3	0.973
27	749	54.4	3.7386416726502
27	750	54.5	5.0961199961389
27	751	54.6	3.2095836069577
27	752	54.7	2.416787775227
27	753	54.8	0.973
27	754	54.9	5.8742700193014
27	755	55	0.973
27	756	55.1	3.4791198996145
27	757	55.2	3.6682480828061
27	758	55.3	1.274425832698
27	759	55.4	0.973
27	760	55.5	5.362793266198
27	761	55.6	0.973
27	762	55.7	2.5449013408093
27	763	55.8	6.4195706640358
27	764	55.9	0.973
27	765	56	5.0763652781669
27	766	56.1	0.973
27	767	56.2	7.3087900196261
27	768	56.3	0.9433813233113
27	769	56.4	0.973
27	770	56.5	4.8824560977062
27	771	56.6	0.973
27	772	56.7	3.8426844218846
27	773	56.8	3.9360462907753
27	774	56.9	0.973
27	775	57	7.0818786896101
27	776	57.1	0.973
27	777	57.2	5.6179667955977
27	778	57.3	0.973
27	779	57.4	6.1633432621841
27	780	57.5	2.9662413039649
27	781	57.6	0.973
27	782	57.7	4.2790591552443
27	783	57.8	2.6638335082186
27	784	57.9	0.973
27	785	58	5.092624773097
27	786	58.1	2.7522104477861
27	787	58.2	4.0050961673033
27	802	58.3	1.6284200137676
27	817	58.4	2.0258473739217
27	818	58.5	2.0410329979658
27	819	58.6	0.973
27	820	58.7	4.4638962867679
27	821	58.8	0.973
27	836	58.9	4.3382262923837
27	837	59	0.973
27	838	59.1	7.3106356000414
27	839	59.2	3.206116284135
27	840	59.3	0.973
27	841	59.4	4.2608760440317
27	842	59.5	0.973
27	843	59.6	5.9492978144982
27	844	59.7	3.7384015949602
27	845	59.8	1.8643703246948
27	846	59.9	3.1636009203398
27	847	60	1.5217757828993
27	848	60.1	2.0850905421518
27	849	60.2	4.3222011530905
27	850	60.3	1.3444792378162
27	851	60.4	0.973
27	852	60.5	2.1743731789471
27	853	60.6	8.0037292888769
27	854	60.7	0.973
27	869	60.8	4.1778298385806
27	870	60.9	5.6463690840436
27	871	61	0.973
27	872	61.1	4.7435089953228
27	873	61.2	1.7641537085876
27	874	61.3	1.8017559073231
27	875	61.4	2.0030978144552
27	876	61.5	4.2499786712253
27	877	61.6	0.973
27	878	61.7	3.7380501307495
27	879	61.8	2.7987512363982
27	880	61.9	5.1018888368601
27	881	62	0.973
27	882	62.1	1.253919047214
27	883	62.2	3.1088253878982
27	884	62.3	5.5135264519575
27	885	62.4	1.9153332342082
27	886	62.5	0.88144241107614
27	887	62.6	6.1339235825622
27	888	62.7	0.87944518481679
27	889	62.8	0.973
27	890	62.9	3.8006536888705
27	891	63	3.0719455810884
27	892	63.1	5.0191698157265
27	907	63.2	2.8214675040654
27	908	63.3	0.973
27	909	63.4	3.4954323419809
27	910	63.5	5.0563354978951
27	925	63.6	0.973
27	926	63.7	1.3166503803015
27	927	63.8	2.4292385761321
27	928	63.9	2.7866839774458
27	929	64	5.1726006807829
27	930	64.1	3.921022010436
27	931	64.2	2.5968796142447
27	932	64.3	2.88615077375
27	933	64.4	3.1273404619764
27	934	64.5	0.973
27	935	64.6	5.7371321644144
27	936	64.7	1.4204693194145
27	937	64.8	0.973
27	938	64.9	3.375300536362
27	939	65	3.8080143404089
27	940	65.1	0.973
27	941	65.2	2.6135177273943
27	942	65.3	2.2573324436474
27	943	65.4	7.8471658385637
27	958	65.5	0.973
27	959	65.6	6.0897505781293
27	960	65.7	2.8991794996091
27	961	65.8	0.973
27	962	65.9	1.6048066001059
27	963	66	2.5738354161116
27	964	66.1	4.3303879780281
27	965	66.2	0.973
27	966	66.3	7.1125495221004
27	967	66.4	0.973
27	968	66.5	2.4454207618137
27	969	66.6	2.4461174776794
27	970	66.7	4.3203032933668
27	971	66.8	5.0316417810948
27	972	66.9	0.98154058344487
27	973	67	3.351121439024
27	974	67.1	2.996328206362
27	975	67.2	0.973
27	990	67.3	2.6487232918147
27	991	67.4	0.973
27	1006	67.5	1.0182794703269
27	1007	67.6	2.6906254439603
27	1008	67.7	5.9990157081895
27	1023	67.8	0.973
27	1024	67.9	1.6916700426798
27	1025	68	7.2013148167774
27	1026	68.1	0.973
27	1027	68.2	6.5057138392748
27	1028	68.3	1.8614427912826
27	1029	68.4	0.973
27	1030	68.5	1.0035984029278
27	1031	68.6	2.3291629338442
27	1032	68.7	7.8599797658733
27	1033	68.8	0.79034880970416
27	1034	68.9	0.973
27	1035	69	6.9844179588039
27	1036	69.1	0.973
27	1037	69.2	4.4729064678113
27	1038	69.3	3.3734036677096
27	1039	69.4	2.4910560547988
27	1040	69.5	1.7834375633829
27	1041	69.6	3.9292788644182
27	1042	69.7	1.0346440992436
27	1043	69.8	0.973
27	1044	69.9	3.422978455309
27	1045	70	4.7683998804376
27	1046	70.1	0.973
27	1047	70.2	4.6364472626549
27	1048	70.3	0.973
27	1049	70.4	6.6144541182258
27	1050	70.5	0.84027626451491
27	1051	70.6	0.973
27	1052	70.7	2.0495455894691
27	1053	70.8	3.7125005352273
27	1054	70.9	1.42118284132
27	1055	71	5.0764470206981
27	1056	71.1	0.973
27	1057	71.2	1.8467747708935
27	1058	71.3	6.6340122185524
27	1059	71.4	0.973
27	1060	71.5	3.8317228033362
27	1061	71.6	3.8476796419336
27	1062	71.7	3.8671610189152
27	1063	71.8	0.973
27	1064	71.9	1.9577421171927
27	1065	72	3.5851389209517
27	1066	72.1	2.6429054931206
27	1067	72.2	1.1642468613338
27	1068	72.3	0.973
27	1083	72.4	4.3741276142638
27	1084	72.5	0.973
27	1099	72.6	3.7142812214442
27	1100	72.7	4.7262357148432
27	1101	72.8	1.8131178865789
27	1102	72.9	0.973
27	1103	73	7.4678031290895
27	1104	73.1	0.973
27	1105	73.2	1.7278286229303
27	1106	73.3	5.5854422338463
27	1107	73.4	2.8467159217795
27	1108	73.5	2.0940129772046
27	1109	73.6	0.973
27	1110	73.7	5.7656323206704
27	1111	73.8	1.2950949066631
27	1112	73.9	2.8397949137155
27	1113	74	0.973
27	1114	74.1	2.7832791968982
27	1115	74.2	7.1866699163858
27	1116	74.3	1.4363702635935
27	1117	74.4	0.973
27	1118	74.5	0.93665580772537
27	1133	74.6	3.7877132292441
27	1134	74.7	5.6898360916051
27	1135	74.8	0.973
27	1136	74.9	5.8595880798543
27	1137	75	0.973
27	1138	75.1	2.0217697412623
27	1139	75.2	4.2170964247128
27	1140	75.3	0.973
27	1141	75.4	4.2124112980532
27	1142	75.5	2.879394332057
27	1143	75.6	3.79612656804
27	1144	75.7	0.973
27	1145	75.8	2.9576255913883
27	1146	75.9	3.266485752072
27	1147	76	5.1901926215452
27	1149	76.1	0.973
27	1150	76.2	3.60525317109
27	1151	76.3	3.6090838537322
27	1152	76.4	3.1733414087996
27	1153	76.5	1.4127028654904
27	1154	76.6	1.3838363529958
27	1155	76.7	6.167093249371
27	1156	76.8	2.6111515964874
27	1157	76.9	0.973
27	1158	77	3.2482354786155
27	1159	77.1	3.3714702967153
27	1160	77.2	2.4723353469127
27	1161	77.3	2.5993185020545
27	1162	77.4	0.973
27	1163	77.5	6.9143862968212
27	1178	77.6	3.3468916085383
27	1193	77.7	0.973
27	1194	77.8	3.7548408385547
27	1195	77.9	0.973
27	1196	78	3.2190216539947
27	1197	78.1	4.2351350557656
27	1198	78.2	1.6980567717634
27	1199	78.3	1.3431458805594
27	1200	78.4	6.0561001109172
27	1201	78.5	1.0965428132866
27	1202	78.6	0.973
27	1203	78.7	2.981165658806
27	1204	78.8	3.9960561395686
27	1205	78.9	0.973
27	1206	79	4.443153651308
27	1207	79.1	0.973
27	1208	79.2	2.1527303407261
27	1209	79.3	7.5871620793388
27	1210	79.4	0.973
27	1211	79.5	1.4331252761537
27	1212	79.6	5.8237475250903
27	1227	79.7	0.973
27	1228	79.8	5.3376894258871
27	1229	79.9	1.9125336971074
27	1230	80	0.88356242390739
27	1231	80.1	1.0238332087019
27	1232	80.2	1.6513926508144
27	1233	80.3	5.7542506543404
27	1234	80.4	0.973
27	1249	80.5	5.2343199193129
27	1250	80.6	0.973
27	1251	80.7	4.0050909002947
27	1252	80.8	3.4634567606526
27	1253	80.9	3.4689658143923
27	1254	81	3.1183593177492
27	1255	81.1	1.3412269424731
27	1256	81.2	0.88711033784211
27	1257	81.3	4.6934286343335
27	1258	81.4	4.1131364308355
27	1259	81.5	0.973
27	1260	81.6	2.3223635773983
27	1261	81.7	2.0023167975417
27	1262	81.8	1.8022239148445
27	1263	81.9	4.6783513587453
27	1264	82	5.5939182425256
27	1265	82.1	1.9536580300424
27	1266	82.2	0.973
27	1267	82.3	5.9885181718299
27	1268	82.4	0.973
27	1269	82.5	2.6823505790738
27	1270	82.6	5.6715633820762
27	1271	82.7	1.0129992671736
27	1272	82.8	0.973
27	1273	82.9	5.4087281948644
27	1274	83	1.5408456330868
27	1275	83.1	1.7635656348386
27	1276	83.2	2.4172280551423
27	1277	83.3	4.0551971739368
27	1278	83.4	2.8742592595112
27	1279	83.5	0.973
27	1280	83.6	6.0060708813425
27	1281	83.7	1.4699559351411
27	1282	83.8	0.91217924511026
27	1283	83.9	1.0341508564568
27	1284	84	3.7557295268789
27	1285	84.1	1.8452123879751
27	1286	84.2	1.9415153305177
27	1287	84.3	7.4039604382888
27	1288	84.4	0.973
27	1289	84.5	4.5157610634568
27	1290	84.6	0.973
27	1291	84.7	4.6528381425708
27	1292	84.8	2.287752225291
27	1293	84.9	0.973
27	1294	85	7.4401488291413
27	1295	85.1	2.5632070495834
27	1296	85.2	2.0138401156952
27	1311	85.3	0.973
27	1312	85.4	2.8159926392714
27	1313	85.5	3.7826375370022
27	1314	85.6	0.973
27	1315	85.7	4.8037120407436
27	1316	85.8	1.7093647801144
27	1317	85.9	2.719425007611
27	1318	86	3.3576816665301
27	1319	86.1	4.2209856428427
27	1320	86.2	0.973
27	1321	86.3	6.2366728357675
27	1322	86.4	0.973
27	1323	86.5	4.2278570049613
27	1324	86.6	5.6923235468262
27	1325	86.7	0.973
27	1340	86.8	1.4830557613633
27	1341	86.9	5.8990685420159
27	1342	87	2.8072799900746
27	1343	87.1	3.3381546500904
27	1344	87.2	0.973
27	1345	87.3	2.8002244871722
27	1346	87.4	1.6330352462991
27	1347	87.5	6.0902563204189
27	1348	87.6	0.973
27	1349	87.7	4.040228002833
27	1350	87.8	0.973
27	1351	87.9	6.4644355790824
27	1352	88	0.973
27	1353	88.1	1.9578402611029
27	1354	88.2	5.9649106705802
27	1355	88.3	2.008889770651
27	1356	88.4	2.4465677127397
27	1357	88.5	1.8739429054374
27	1358	88.6	3.4062073760728
27	1359	88.7	1.3180443370477
27	1360	88.8	0.973
27	1361	88.9	2.8073143377081
27	1362	89	6.1732214071182
27	1363	89.1	0.973
27	1364	89.2	5.0181071175305
27	1365	89.3	2.8965443566481
27	1366	89.4	2.5719151550484
27	1367	89.5	4.018803410483
27	1368	89.6	1.8662912322632
27	1369	89.7	0.973
27	1370	89.8	5.8966365928091
27	1371	89.9	0.973
27	1372	90	3.0567435659061
27	1373	90.1	3.7522249882853
27	1374	90.2	4.7615425028421
27	1375	90.3	0.973
27	1376	90.4	1.7756918731417
27	1377	90.5	3.3922707741266
27	1378	90.6	1.28278247894
27	1379	90.7	4.3238791029261
27	1380	90.8	4.405206643514
27	1381	90.9	0.973
27	1382	91	2.1714620781322
27	1397	91.1	3.619164480656
27	1398	91.2	2.2013589860816
27	1399	91.3	1.2018707601617
27	1400	91.4	5.7888568316777
27	1401	91.5	1.6589435579396
27	1402	91.6	0.973
27	1403	91.7	4.1678886950387
27	1404	91.8	5.1381470193101
27	1405	91.9	1.412487678346
27	1406	92	2.7600587259632
27	1407	92.1	2.9179317783373
27	1408	92.2	0.973
27	1429	92.3	1.6542122647433
27	1430	92.4	1.9614429995878
27	1431	92.5	4.4090114480372
27	1432	92.6	4.0781425000845
27	1433	92.7	2.408350683469
27	1434	92.8	2.8736173029553
27	1435	92.9	1.9378486919919
27	1436	93	4.1662246427249
27	1437	93.1	0.973
27	1438	93.2	3.8909696174071
27	1439	93.3	0.973
27	1440	93.4	4.4447667086897
27	1441	93.5	5.8298785899346
27	1442	93.6	0.973
27	1443	93.7	6.1182131150516
27	1444	93.8	0.973
27	1465	93.9	1.4656000752376
27	1466	94	4.785905729768
27	1467	94.1	2.8948161445003
27	1468	94.2	2.3301554145421
27	1469	94.3	0.973
27	1470	94.4	2.5830285674341
27	1471	94.5	3.8549859442041
27	1472	94.6	0.973
27	1473	94.7	3.6662254051033
27	1474	94.8	6.3538994992904
27	1475	94.9	0.973
27	1476	95	1.85896277158
27	1491	95.1	4.0509493395325
27	1492	95.2	3.0617300174659
27	1493	95.3	1.530050096803
27	1494	95.4	0.973
27	1495	95.5	5.4466979929176
27	1496	95.6	0.973
27	1497	95.7	2.6439137953387
27	1498	95.8	4.9322354641515
27	1499	95.9	4.0134074625852
27	1500	96	1.127051964818
27	1501	96.1	0.973
27	1502	96.2	2.9581090939312
27	1503	96.3	5.4055835690486
27	1504	96.4	2.135542963648
27	1505	96.5	13.605715113877
27	1506	96.6	10.562889771017
27	1507	96.7	9.5464260300204
27	1508	96.8	13.694199975844
27	1509	96.9	8.8930742152794
27	1510	97	12.199305166038
27	1511	97.1	14.143834863026
27	1532	97.2	14.270840520385
27	1533	97.3	9.6065381830256
27	1534	97.4	12.191314768424
27	1535	97.5	10.258357751316
27	1536	97.6	10.290419992312
27	1537	97.7	10.174889365073
27	1538	97.8	14.00828630553
27	1539	97.9	12.345263005289
27	1540	98	9.9919442090146
27	1541	98.1	10.296064423854
27	1542	98.2	15.883049350031
27	1543	98.3	14.589087358638
27	1544	98.4	14.269880804525
27	1545	98.5	12.872277539565
27	1546	98.6	15.158756873108
27	1547	98.7	16.812425129311
27	1548	98.8	16.099246600067
27	1549	98.9	10.924746861607
27	1550	99	17.068065312203
27	1551	99.1	12.821397739355
27	1552	99.2	13.037367942888
27	1553	99.3	12.576670733285
27	1554	99.4	16.940412364935
27	1555	99.5	13.847349748336
27	1556	99.6	17.266931111555
27	1557	99.7	13.911441959387
27	1558	99.8	16.170668711511
27	1559	99.9	18.283994462318
27	1560	100	17.62872220485
27	1561	100.1	17.672038147849
27	1588	100.2	12.323510610279
27	1589	100.3	15.14577323046
27	1590	100.4	12.952526825087
27	1591	100.5	12.046885631728
27	1592	100.6	18.466140305193
27	1593	100.7	12.526285219243
27	1594	100.8	19.264832895764
27	1595	100.9	17.369397022793
27	1596	101	19.665377724834
27	1597	101.1	18.634839232067
27	1598	101.2	20.795217832801
27	1599	101.3	20.537712428867
27	1600	101.4	13.14696694307
27	1601	101.5	2.9465621814939
27	1602	101.6	9.1700717813164
27	1603	101.7	-0.31879639071398
27	1604	101.8	4.5089245398331
27	1605	101.9	7.6080604723316
27	1606	102	4.2716934307992
27	1607	102.1	-0.29136458734894
27	1608	102.2	4.6193802722205
27	1629	102.3	6.2723967122683
27	1630	102.4	3.2682624301536
27	1631	102.5	7.1164606366677
27	1632	102.6	4.2253965748218
27	1679	102.7	4.6374760939414
27	1680	102.8	6.3829378031159
27	1681	102.9	3.9649944393858
27	1682	103	5.5834187526134
27	1683	103.1	2.267777733348
27	1684	103.2	5.7159553403062
27	1685	103.3	6.4210950878878
27	1686	103.4	2.4017456908077
27	1687	103.5	0.46194511126338
27	1688	103.6	2.8588870970562
27	1689	103.7	10.715115654144
27	1690	103.8	0.96643355351802
27	1691	103.9	6.393672767415
27	1692	104	6.9370701679333
27	1693	104.1	1.6568118082882
27	1694	104.2	0.973
27	1695	104.3	11.715091499141
27	1696	104.4	0.973
27	1697	104.5	6.7401076552661
27	1698	104.6	0.56926800237037
27	1699	104.7	7.6813328023213
27	1760	104.8	6.0852495889395
27	1761	104.9	5.9101173573046
27	1762	105	0.52023050990842
27	1763	105.1	3.691469851948
27	1764	105.2	2.6146984601771
27	1765	105.3	4.7569322222951
27	1766	105.4	5.9280200085638
27	1767	105.5	8.7996434709651
27	1768	105.6	1.9981084637275
27	1769	105.7	5.6221927464553
27	1770	105.8	2.8962641177465
27	1771	105.9	2.0382021754359
27	1772	106	8.3162717034408
27	1774	106.1	0.82396897302526
27	1775	106.2	7.8579273183558
27	1776	106.3	2.1824346955319
27	1777	106.4	9.9816353534229
27	1778	106.5	-0.52282168034107
27	1779	106.6	3.5658089142552
27	1780	106.7	6.186394145274
27	1781	106.8	1.2619670927164
27	1782	106.9	5.3654965043623
27	1783	107	2.4199350535563
27	1784	107.1	6.6872483453525
27	1785	107.2	7.1093106706304
27	1786	107.3	6.2562867164394
27	1787	107.4	2.9273944910102
27	1808	107.5	2.4585022473989
27	1809	107.6	4.6232109987139
27	1810	107.7	3.0192308606623
27	1811	107.8	8.9025054596089
27	1812	107.9	0.973
27	1813	108	6.4417399937488
27	1814	108.1	7.244040646372
27	1815	108.2	7.6537211963429
27	1816	108.3	2.741756852396
27	1817	108.4	-0.084019185572122
27	1818	108.5	5.1640296602066
27	1819	108.6	8.2208180414606
27	1820	108.7	0.26362899330702
27	1821	108.8	10.339211803833
27	1822	108.9	0.973
27	1823	109	9.4248920940027
27	1824	109.1	1.6999370034416
27	1825	109.2	9.1455834832136
27	1826	109.3	0.973
27	1847	109.4	8.6905006095292
27	1848	109.5	0.010030129207724
27	1849	109.6	10.730891917454
27	1850	109.7	0.973
27	1851	109.8	5.9135077161802
27	1852	109.9	4.8838270184124
27	1853	110	3.2261129239276
27	1854	110.1	2.0153225626761
27	1855	110.2	5.5729969290762
27	1856	110.3	6.8919465481374
27	1857	110.4	8.0936552262098
27	1858	110.5	-0.64958558762689
27	1859	110.6	7.3952894182581
27	1860	110.7	3.8103124407509
27	1861	110.8	2.2342727037882
27	1862	110.9	2.1395963921576
27	1863	111	8.0262078079753
27	1864	111.1	-0.034453542671696
27	1865	111.2	11.786456339595
27	1866	111.3	2.0243074303662
27	1867	111.4	7.4095772212172
27	1868	111.5	0.973
27	1869	111.6	2.231414672331
27	1870	111.7	4.9020309946639
27	1871	111.8	7.4126738460971
27	1872	111.9	1.9817676702745
27	1873	112	7.1048474468508
27	1874	112.1	4.4005289144114
27	1875	112.2	0.79636996067329
27	1876	112.3	4.2982045950019
27	1877	112.4	7.1608260843863
27	1878	112.5	6.0142287799737
27	1879	112.6	8.2391927387773
27	1880	112.7	3.784965237676
27	1881	112.8	2.3545452666102
27	1882	112.9	2.1176864842769
27	1883	113	5.0394655794218
27	1884	113.1	0.85127293931565
27	1885	113.2	7.2439301867652
27	1886	113.3	1.4709023868218
27	1887	113.4	5.7121598030783
27	1888	113.5	7.720224310628
27	1889	113.6	5.7595833542603
27	1890	113.7	1.3122532217871
27	1891	113.8	9.7676324899731
27	1892	113.9	0.973
27	1893	114	12.440710696813
27	1914	114.1	0.973
27	1915	114.2	12.081655919813
27	1916	114.3	0.973
27	1917	114.4	8.4585649779521
27	1918	114.5	0.57912736985448
27	1919	114.6	3.9335529522826
27	1920	114.7	3.8353272686805
27	1921	114.8	11.767673843798
27	1942	114.9	2.649932517203
27	1943	115	0.063921090372348
27	1944	115.1	7.798492042424
27	1945	115.2	0.973
27	1946	115.3	7.5217059891103
27	1947	115.4	7.1394265278491
27	1948	115.5	5.4863870094694
27	1949	115.6	0.10997683281317
27	1976	115.7	5.8637652944194
27	1977	115.8	2.802600232639
27	1978	115.9	9.4794263070519
27	1979	116	2.043522200034
27	1980	116.1	5.4879419833742
27	1981	116.2	3.9847936881721
27	1982	116.3	-0.46514865184176
27	1983	116.4	9.768353322674
27	1984	116.5	2.8982507179612
27	1985	116.6	1.2259984331109
27	1986	116.7	7.3617548840482
27	1987	116.8	1.6308511577557
27	2008	116.9	8.8249089982629
27	2009	117	1.8867125864801
27	2010	117.1	9.0640186243447
27	2011	117.2	0.22760905954027
27	2012	117.3	6.0674973535498
27	2013	117.4	3.1658712138204
27	2014	117.5	4.9879612067451
27	2015	117.6	0.94280224400706
27	2016	117.7	5.6163089795487
27	2017	117.8	4.5023236373082
27	2018	117.9	9.1811431720406
27	2019	118	0.973
27	2020	118.1	4.28446467793
27	2021	118.2	6.9251424059692
27	2022	118.3	4.8996140334183
27	2023	118.4	0.7899445790846
27	2024	118.5	6.7526747618651
27	2025	118.6	6.4266587840697
27	2026	118.7	2.294966156
27	2027	118.8	2.072619504176
27	2028	118.9	8.3707803331204
27	2029	119	6.5767849537762
27	2030	119.1	-0.73879426617671
27	2031	119.2	7.7034074611164
27	2032	119.3	5.8389115134723
27	2033	119.4	0.973
27	2034	119.5	6.6410842171391
27	2035	119.6	7.6041992056601
27	2036	119.7	4.7441682026021
27	2037	119.8	1.0773006468505
27	2038	119.9	6.6537613982621
27	2039	120	7.1783446367728
27	2060	120.1	-0.29070608072923
27	2061	120.2	9.2511453055226
27	2062	120.3	3.3234670745817
27	2063	120.4	3.7873284617263
27	2064	120.5	0.973
27	2065	120.6	8.9743393579887
27	2066	120.7	5.7956252859673
27	2067	120.8	0.60912242536732
27	2068	120.9	7.2689418029923
27	2069	121	-0.41892156310489
27	2070	121.1	8.6326472646334
27	2071	121.2	8.3873944360777
27	2072	121.3	0.46571116804291
27	2073	121.4	-0.025577422848285
27	2074	121.5	8.5486822296507
27	2075	121.6	6.446973685831
27	2076	121.7	1.5236852211787
27	2077	121.8	4.746784069346
27	2078	121.9	6.9115080120549
27	2099	122	2.5112907059833
27	2100	122.1	6.4633324026293
27	2101	122.2	-0.34190287557689
27	2102	122.3	4.9344496376625
27	2103	122.4	6.6312197880444
27	2104	122.5	7.0900572395113
27	2105	122.6	-0.36655097886965
27	2106	122.7	3.1169129329473
