version 2
run General-0-20170411-02:42:34-1196
attr configname General
attr datetime 20170411-02:42:34
attr experiment General
attr inifile omnetpp.ini
attr iterationvars ""
attr iterationvars2 $repetition=0
attr measurement ""
attr network DVCastScenario
attr processid 1196
attr repetition 0
attr replication #0
attr resultdir results
attr runnumber 0
attr seedset 0
param **.coreDebug false
param **.debug false
param *.**.nic.mac1609_4.bitrate 18Mbps
param *.**.nic.mac1609_4.txPower 20mW
param *.**.nic.mac1609_4.useServiceChannel false
param *.**.nic.phy80211p.analogueModels "xmldoc(\"config.xml\")"
param *.**.nic.phy80211p.decider "xmldoc(\"config.xml\")"
param *.**.nic.phy80211p.sensitivity -89dBm
param *.**.nic.phy80211p.thermalNoise -110dBm
param *.**.nic.phy80211p.usePropagationDelay true
param *.**.nic.phy80211p.useThermalNoise true
param *.annotations.draw false
param *.connectionManager.alpha 2.0
param *.connectionManager.carrierFrequency "5.890e9 Hz"
param *.connectionManager.pMax 20mW
param *.connectionManager.sat -89dBm
param *.connectionManager.sendDirect true
param *.manager.autoShutdown true
param *.manager.host "\"localhost\""
param *.manager.launchConfig "xmldoc(\"uah.launchd.xml\")"
param *.manager.margin 25
param *.manager.moduleDisplayString "\"\""
param *.manager.moduleName "\"node\""
param *.manager.moduleType "\"org.car2x.veins.nodes.Car\""
param *.manager.port 9999
param *.manager.updateInterval 0.1s
param *.node[*0].veinsmobility.accidentCount 1
param *.node[*0].veinsmobility.accidentDuration 30s
param *.node[*0].veinsmobility.accidentStart 75s
param *.node[*].appl.beaconInterval 1s
param *.node[*].appl.beaconPriority 3
param *.node[*].appl.dataOnSch false
param *.node[*].appl.dataPriority 2
param *.node[*].appl.debug false
param *.node[*].appl.headerLength "256 bit"
param *.node[*].appl.maxOffset 0.005s
param *.node[*].appl.sendBeacons false
param *.node[*].appl.sendData true
param *.node[*].applType "\"DVCastLayer\""
param *.node[*].mobilityType "\"TraCIMobility\""
param *.node[*].mobilityType.debug true
param *.node[*].veinsmobility.x 0
param *.node[*].veinsmobility.y 0
param *.node[*].veinsmobility.z 1.895
param *.node[*].veinsmobilityType "\"org.car2x.veins.modules.mobility.traci.TraCIMobility\""
param *.node[*].veinsmobilityType.debug true
param *.playgroundSizeX 12500m
param *.playgroundSizeY 12500m
param *.playgroundSizeZ 2500m
param *.world.use2D false
param *.world.useTorus false

vector 2  DVCastScenario.node[0].veinsmobility  posx  ETV
vector 3  DVCastScenario.node[0].veinsmobility  posy  ETV
vector 4  DVCastScenario.node[0].veinsmobility  speed  ETV
vector 5  DVCastScenario.node[0].veinsmobility  acceleration  ETV
vector 6  DVCastScenario.node[0].veinsmobility  co2emission  ETV
vector 9  DVCastScenario.node[1].veinsmobility  posx  ETV
vector 10  DVCastScenario.node[1].veinsmobility  posy  ETV
vector 11  DVCastScenario.node[1].veinsmobility  speed  ETV
vector 12  DVCastScenario.node[1].veinsmobility  acceleration  ETV
vector 13  DVCastScenario.node[1].veinsmobility  co2emission  ETV
vector 16  DVCastScenario.node[2].veinsmobility  posx  ETV
vector 17  DVCastScenario.node[2].veinsmobility  posy  ETV
vector 18  DVCastScenario.node[2].veinsmobility  speed  ETV
vector 19  DVCastScenario.node[2].veinsmobility  acceleration  ETV
vector 20  DVCastScenario.node[2].veinsmobility  co2emission  ETV
vector 23  DVCastScenario.node[3].veinsmobility  posx  ETV
vector 24  DVCastScenario.node[3].veinsmobility  posy  ETV
vector 25  DVCastScenario.node[3].veinsmobility  speed  ETV
vector 26  DVCastScenario.node[3].veinsmobility  acceleration  ETV
vector 27  DVCastScenario.node[3].veinsmobility  co2emission  ETV
vector 30  DVCastScenario.node[4].veinsmobility  posx  ETV
vector 31  DVCastScenario.node[4].veinsmobility  posy  ETV
vector 32  DVCastScenario.node[4].veinsmobility  speed  ETV
vector 33  DVCastScenario.node[4].veinsmobility  acceleration  ETV
vector 34  DVCastScenario.node[4].veinsmobility  co2emission  ETV
vector 37  DVCastScenario.node[5].veinsmobility  posx  ETV
vector 38  DVCastScenario.node[5].veinsmobility  posy  ETV
vector 39  DVCastScenario.node[5].veinsmobility  speed  ETV
vector 40  DVCastScenario.node[5].veinsmobility  acceleration  ETV
vector 41  DVCastScenario.node[5].veinsmobility  co2emission  ETV
vector 44  DVCastScenario.node[6].veinsmobility  posx  ETV
vector 45  DVCastScenario.node[6].veinsmobility  posy  ETV
vector 46  DVCastScenario.node[6].veinsmobility  speed  ETV
vector 47  DVCastScenario.node[6].veinsmobility  acceleration  ETV
vector 48  DVCastScenario.node[6].veinsmobility  co2emission  ETV
vector 51  DVCastScenario.node[7].veinsmobility  posx  ETV
vector 52  DVCastScenario.node[7].veinsmobility  posy  ETV
vector 53  DVCastScenario.node[7].veinsmobility  speed  ETV
vector 54  DVCastScenario.node[7].veinsmobility  acceleration  ETV
vector 55  DVCastScenario.node[7].veinsmobility  co2emission  ETV
vector 58  DVCastScenario.node[8].veinsmobility  posx  ETV
vector 59  DVCastScenario.node[8].veinsmobility  posy  ETV
vector 60  DVCastScenario.node[8].veinsmobility  speed  ETV
vector 61  DVCastScenario.node[8].veinsmobility  acceleration  ETV
vector 62  DVCastScenario.node[8].veinsmobility  co2emission  ETV
vector 65  DVCastScenario.node[9].veinsmobility  posx  ETV
vector 66  DVCastScenario.node[9].veinsmobility  posy  ETV
vector 67  DVCastScenario.node[9].veinsmobility  speed  ETV
vector 68  DVCastScenario.node[9].veinsmobility  acceleration  ETV
vector 69  DVCastScenario.node[9].veinsmobility  co2emission  ETV
vector 72  DVCastScenario.node[10].veinsmobility  posx  ETV
vector 73  DVCastScenario.node[10].veinsmobility  posy  ETV
vector 74  DVCastScenario.node[10].veinsmobility  speed  ETV
vector 75  DVCastScenario.node[10].veinsmobility  acceleration  ETV
vector 76  DVCastScenario.node[10].veinsmobility  co2emission  ETV
vector 79  DVCastScenario.node[11].veinsmobility  posx  ETV
vector 80  DVCastScenario.node[11].veinsmobility  posy  ETV
vector 81  DVCastScenario.node[11].veinsmobility  speed  ETV
vector 82  DVCastScenario.node[11].veinsmobility  acceleration  ETV
vector 83  DVCastScenario.node[11].veinsmobility  co2emission  ETV
vector 86  DVCastScenario.node[12].veinsmobility  posx  ETV
vector 87  DVCastScenario.node[12].veinsmobility  posy  ETV
vector 88  DVCastScenario.node[12].veinsmobility  speed  ETV
vector 89  DVCastScenario.node[12].veinsmobility  acceleration  ETV
vector 90  DVCastScenario.node[12].veinsmobility  co2emission  ETV
vector 93  DVCastScenario.node[13].veinsmobility  posx  ETV
vector 94  DVCastScenario.node[13].veinsmobility  posy  ETV
vector 95  DVCastScenario.node[13].veinsmobility  speed  ETV
vector 96  DVCastScenario.node[13].veinsmobility  acceleration  ETV
vector 97  DVCastScenario.node[13].veinsmobility  co2emission  ETV
vector 100  DVCastScenario.node[14].veinsmobility  posx  ETV
vector 101  DVCastScenario.node[14].veinsmobility  posy  ETV
vector 102  DVCastScenario.node[14].veinsmobility  speed  ETV
vector 103  DVCastScenario.node[14].veinsmobility  acceleration  ETV
vector 104  DVCastScenario.node[14].veinsmobility  co2emission  ETV
vector 107  DVCastScenario.node[15].veinsmobility  posx  ETV
vector 108  DVCastScenario.node[15].veinsmobility  posy  ETV
vector 109  DVCastScenario.node[15].veinsmobility  speed  ETV
vector 110  DVCastScenario.node[15].veinsmobility  acceleration  ETV
vector 111  DVCastScenario.node[15].veinsmobility  co2emission  ETV
vector 114  DVCastScenario.node[16].veinsmobility  posx  ETV
vector 115  DVCastScenario.node[16].veinsmobility  posy  ETV
vector 116  DVCastScenario.node[16].veinsmobility  speed  ETV
vector 117  DVCastScenario.node[16].veinsmobility  acceleration  ETV
vector 118  DVCastScenario.node[16].veinsmobility  co2emission  ETV
55	176	8.3	1.4322324332167
55	177	8.4	1.5848146051446
55	178	8.5	1.7311677924583
55	179	8.6	1.9475075734934
55	180	8.7	1.890955267136
55	181	8.8	2.1907601332617
55	182	8.9	1.9530297438602
55	183	9	2.2422424944212
55	184	9.1	2.4891249907402
55	194	9.2	2.5682987670743
55	195	9.3	2.4537223335336
55	196	9.4	3.0533097437895
55	197	9.5	2.6220311326332
55	198	9.6	2.8907624968758
55	199	9.7	2.995773042105
55	200	9.8	3.2727776495947
55	201	9.9	3.8257908590443
55	202	10	2.6790308108025
55	203	10.1	2.8321315703029
55	224	10.2	3.8813545779175
55	225	10.3	3.4342693688961
55	226	10.4	3.3183294093905
55	227	10.5	3.7721458551293
55	228	10.6	3.1678017186055
55	229	10.7	4.2992214041557
55	230	10.8	3.7370020151127
55	231	10.9	4.1658730030846
55	232	11	4.7689056644772
55	233	11.1	3.6127880963103
55	236	11.2	4.7585592272302
55	237	11.3	5.6248304829749
55	238	11.4	4.9127844178178
55	239	11.5	5.161644880059
55	240	11.6	5.3856503419015
55	241	11.7	6.2216861941169
55	250	11.8	4.7316551155128
55	251	11.9	5.5756353572303
55	252	12	5.4106218279073
55	253	12.1	5.6632770102393
55	280	12.2	0.973
55	309	12.3	0.973
55	310	12.4	0.973
55	311	12.5	0.973
55	312	12.6	0.973
55	313	12.7	0.973
55	314	12.8	0.973
55	315	12.9	0.973
55	316	13	0.973
55	317	13.1	0.973
55	321	13.2	0.973
55	324	13.3	0.973
55	325	13.4	0.973
55	326	13.5	0.973
55	327	13.6	0.973
55	328	13.7	0.973
55	355	13.8	0.973
55	356	13.9	0.973
55	357	14	0.973
55	358	14.1	0.973
55	379	14.2	3.4974635621448
55	406	14.3	3.6738885400076
55	407	14.4	3.8504555920124
55	408	14.5	4.0271744600662
55	409	14.6	4.2040548860763
55	410	14.7	4.3811066119499
55	414	14.8	4.558339379594
55	415	14.9	4.735762930916
55	416	15	4.9133870078228
55	417	15.1	5.0420735628035
55	428	15.2	3.5647978266287
55	446	15.3	4.579350559826
55	447	15.4	3.6786349143516
55	448	15.5	5.5592116274665
55	449	15.6	4.4061310420778
55	450	15.7	4.2652396646935
55	451	15.8	5.9867303441301
55	452	15.9	4.8944545456203
55	467	16	4.7951364567955
55	468	16.1	5.4965648999016
55	503	16.2	6.5105598508206
55	505	16.3	5.5853524638325
55	506	16.4	6.2413418157711
55	507	16.5	5.1932511543859
55	508	16.6	4.4374173533528
55	509	16.7	5.4557673870001
55	510	16.8	6.3649405385164
55	537	16.9	6.2078791249274
55	547	17	6.8637421073262
55	548	17.1	7.2961318102055
55	584	17.2	6.1030750431693
55	623	17.3	7.8388935467733
55	624	17.4	6.7378009973078
55	651	17.5	7.085999548569
55	652	17.6	7.3078857183207
55	653	17.7	7.3250101216639
55	654	17.8	6.5045905413369
55	658	17.9	7.1096901069494
55	659	18	8.0247305775881
55	660	18.1	6.0794312560553
55	709	18.2	7.40184459745
55	715	18.3	6.145652869395
55	716	18.4	8.6459265408368
55	720	18.5	5.9418006543279
55	721	18.6	7.8701885974923
55	722	18.7	10.077416526834
55	723	18.8	6.2936430626995
55	724	18.9	9.6589542328253
55	725	19	8.6870823749252
55	726	19.1	10.215655921014
55	785	19.2	3.2388739923341
55	824	19.3	0.973
55	825	19.4	3.8728362066519
55	826	19.5	2.2354833478224
55	877	19.6	1.8034020040285
55	898	19.7	2.3899619096179
55	899	19.8	0.973
55	900	19.9	3.0888734557289
55	901	20	0.973
55	916	20.1	2.6770071251412
55	923	20.2	1.1780015558137
55	929	20.3	2.3665556617622
55	930	20.4	2.5868631661856
55	931	20.5	1.9234746936663
55	983	20.6	0.973
55	986	20.7	2.1223170125356
55	987	20.8	1.2710141058993
55	988	20.9	4.1963622219913
55	989	21	0.973
55	991	21.1	1.3794262484936
55	1012	21.2	3.5909748788901
55	1013	21.3	3.3018021759047
55	1070	21.4	0.973
55	1079	21.5	3.593442514478
55	1136	21.6	0.973
55	1137	21.7	1.8709947120799
55	1138	21.8	2.7497565221084
55	1139	21.9	3.293358888765
55	1172	22	2.1958561219915
55	1173	22.1	0.973
55	1184	22.2	1.2212371980757
55	1185	22.3	2.9119312574405
55	1194	22.4	2.2961822704379
55	1195	22.5	0.973
55	1203	22.6	2.4100711990058
55	1204	22.7	5.432795308942
55	1237	22.8	1.7503782787934
55	1238	22.9	0.973
55	1243	23	2.5287073372169
55	1282	23.1	0.973
55	1283	23.2	3.8964811848748
55	1284	23.3	2.4115678246844
55	1305	23.4	0.973
55	1364	23.5	4.6285420611923
55	1365	23.6	1.4517622923872
55	1366	23.7	2.9228182570406
55	1371	23.8	0.973
55	1386	23.9	2.4039471328655
55	1387	24	3.3927793069966
55	1393	24.1	1.3001108055945
55	1394	24.2	2.4701912825834
55	1395	24.3	3.8462045552487
55	1398	24.4	2.2096555907165
55	1432	24.5	1.2375924050001
55	1433	24.6	1.2694407987448
55	1434	24.7	0.973
55	1435	24.8	2.6988303011473
55	1437	24.9	3.0448847886836
55	1438	25	1.7917829215708
55	1439	25.1	0.973
55	1510	25.2	5.60560582501
55	1519	25.3	1.7832261191576
55	1578	25.4	0.973
55	1582	25.5	5.2525825062366
55	1583	25.6	0.973
55	1584	25.7	4.2793013813297
55	1585	25.8	0.973
55	1586	25.9	1.97922722297
55	1587	26	2.1003514887442
55	1588	26.1	2.9952795796915
55	1598	26.2	2.9482978990337
55	1599	26.3	1.5356079570009
55	1607	26.4	3.2479103089127
55	1608	26.5	2.0983148693821
55	1609	26.6	0.973
55	1610	26.7	3.1770992765834
55	1649	26.8	2.689271334155
55	1650	26.9	1.3990848510508
55	1651	27	0.973
55	1684	27.1	0.973
55	1749	27.2	0.973
55	1814	27.3	0.973
55	1815	27.4	0.973
55	1816	27.5	0.973
55	1901	27.6	0.973
55	1902	27.7	0.973
55	1908	27.8	0.973
55	1909	27.9	0.973
55	1910	28	0.973
55	1961	28.1	0.973
55	2034	28.2	0.973
55	2093	28.3	0.973
55	2094	28.4	0.973
55	2095	28.5	0.973
55	2106	28.6	0.973
55	2127	28.7	0.973
55	2128	28.8	0.973
55	2129	28.9	0.973
55	2130	29	0.973
55	2136	29.1	0.973
55	2203	29.2	0.973
55	2211	29.3	0.973
55	2212	29.4	0.973
55	2233	29.5	0.973
55	2266	29.6	0.973
55	2269	29.7	0.973
55	2270	29.8	0.973
55	2271	29.9	0.973
55	2272	30	0.973
55	2273	30.1	0.973
55	2281	30.2	0.973
55	2282	30.3	0.973
55	2283	30.4	0.973
55	2380	30.5	0.973
55	2385	30.6	0.973
55	2386	30.7	3.4975840121359
55	2387	30.8	3.6740090837092
55	2388	30.9	3.850576236078
55	2389	31	4.0272952111496
55	2450	31.1	3.3184289191235
55	2471	31.2	4.3288218266981
55	2472	31.3	4.5060001366318
55	2473	31.4	4.6833663543926
55	2487	31.5	4.8609302218879
55	2488	31.6	4.4307561327629
55	2489	31.7	4.957510327578
55	2504	31.8	4.3030982513717
55	2505	31.9	3.5564856472953
55	2506	32	5.5127538592787
55	2513	32.1	4.6788735003246
55	2516	32.2	4.851369950035
55	2517	32.3	4.2166499912154
55	2518	32.4	6.0002636355641
55	2575	32.5	4.6027792078098
55	2576	32.6	5.2795951317873
55	2577	32.7	6.2317758196672
55	2579	32.8	6.4024205610596
55	2580	32.9	6.0599831174278
55	2627	33	6.8489721148975
55	2628	33.1	6.624222050076
55	2629	33.2	5.5787439327979
55	2630	33.3	7.0539143546993
55	2631	33.4	6.7544797029027
55	2640	33.5	6.3092437716203
55	2673	33.6	6.8931775317416
55	2674	33.7	5.9497379250807
55	2675	33.8	6.9336771689185
55	2702	33.9	6.6490830463792
55	2716	34	7.6585682767172
55	2717	34.1	5.9860159238585
55	2756	34.2	8.5227669759517
55	2757	34.3	8.4996075238306
55	2814	34.4	6.8652973089726
55	2815	34.5	7.4956814589137
55	2834	34.6	7.6984004453055
55	2835	34.7	7.4782829216311
55	2836	34.8	7.9831126493093
55	2892	34.9	7.8120187471944
55	2919	35	6.6568067752391
55	2920	35.1	10.018899624074
55	2970	35.2	8.9778079571442
55	2971	35.3	7.5885884321211
55	3000	35.4	10.52566729662
55	3015	35.5	7.0202625307243
55	3017	35.6	1.2187815646005
55	3018	35.7	1.2335719107919
55	3057	35.8	1.2627435828537
55	3064	35.9	5.6349809752342
55	3068	36	1.5611452006684
55	3069	36.1	0.973
55	3076	36.2	5.2812499358777
55	3153	36.3	0.973
55	3156	36.4	2.983195977992
55	3158	36.5	0.973
55	3159	36.6	3.4974837784057
55	3198	36.7	0.973
55	3224	36.8	2.0118270289941
55	3233	36.9	4.0581167201679
55	3234	37	0.973
55	3235	37.1	4.2314080311692
55	3236	37.2	1.2733272889908
55	3247	37.3	2.823639407393
55	3298	37.4	0.973
55	3299	37.5	1.524053854702
55	3332	37.6	3.9567100386437
55	3338	37.7	1.2430576388723
55	3341	37.8	0.973
55	3380	37.9	3.8438660685714
55	3381	38	1.2149555935997
55	3402	38.1	0.973
55	3459	38.2	1.8238217083515
55	3474	38.3	5.1495182932115
55	3482	38.4	2.2414923006601
55	3483	38.5	0.973
55	3488	38.6	2.4354586577792
55	3509	38.7	2.9215780951413
54	176	8.3	2.4693884058534
54	177	8.4	2.4434967458012
54	178	8.5	2.412386255906
54	179	8.6	2.589637225778
54	180	8.7	2.0354790821962
54	181	8.8	2.4466310824211
54	182	8.9	1.6777830527908
54	183	9	2.069627123972
54	184	9.1	2.2888606205627
54	194	9.2	2.2011426491247
54	195	9.3	1.8595544085838
54	196	9.4	2.5245620887959
54	197	9.5	1.797044705064
54	198	9.6	2.0101941086352
54	199	9.7	2.0071809895802
54	200	9.8	2.1839777117828
54	201	9.9	2.5999280445278
54	202	10	1.3613708443008
54	203	10.1	1.4556131141726
54	224	10.2	2.3302888976643
54	225	10.3	1.8371803510701
54	226	10.4	1.6680824161274
54	227	10.5	1.9655268300092
54	228	10.6	1.4251643386204
54	229	10.7	2.220208210079
54	230	10.8	1.729108495079
54	231	10.9	1.9686841284856
54	232	11	2.2987878868356
54	233	11.1	1.463425639132
54	236	11.2	2.1485964347376
54	237	11.3	2.5947374627693
54	238	11.4	2.0785279560834
54	239	11.5	2.1533128506737
54	240	11.6	2.2076198634226
54	241	11.7	2.5818670823704
54	250	11.8	1.7193646281958
54	251	11.9	2.10725609574
54	252	12	1.9656850571046
54	253	12.1	2.0365293308161
54	280	12.2	-1.6531625673636
54	309	12.3	-3.0761483309368
54	310	12.4	-3.2120623331472
54	311	12.5	-3.1062323652841
54	312	12.6	-2.8514909751443
54	313	12.7	-3.1138257258611
54	314	12.8	-2.7286253243568
54	315	12.9	-2.5330954484075
54	316	13	-1.9797027356942
54	317	13.1	-3.0910820638676
54	321	13.2	-2.6264583837476
54	324	13.3	-1.7518109863014
54	325	13.4	-3.5285041747696
54	326	13.5	-1.9024765494064
54	327	13.6	-2.4139329909004
54	328	13.7	-1.8141217874717
54	355	13.8	-2.1295206291666
54	356	13.9	-2.2455688474546
54	357	14	-2.851867977953
54	358	14.1	-2.1452086241705
54	379	14.2	2.6
54	406	14.3	2.6
54	407	14.4	2.6
54	408	14.5	2.6
54	409	14.6	2.6
54	410	14.7	2.6
54	414	14.8	2.6
54	415	14.9	2.6
54	416	15	2.6
54	417	15.1	2.5668534402736
54	428	15.2	1.4789858877193
54	446	15.3	2.0971247036243
54	447	15.4	1.4569948070683
54	448	15.5	2.5681143796537
54	449	15.6	1.7910996202612
54	450	15.7	1.658607797185
54	451	15.8	2.578066821699
54	452	15.9	1.8948058919748
54	467	16	1.7897169251926
54	468	16.1	2.106837102701
54	503	16.2	2.5531560311094
54	505	16.3	2.0196872609668
54	506	16.4	2.2783816214651
54	507	16.5	1.7256430013338
54	508	16.6	1.3387116551166
54	509	16.7	1.7770193876931
54	510	16.8	2.1391421225853
54	537	16.9	2.0174143206328
54	547	17	2.246101826313
54	548	17.1	2.3667669117916
54	584	17.2	1.8249255463947
54	623	17.3	2.4735646012938
54	624	17.4	1.9848529339535
54	651	17.5	2.0750694330549
54	652	17.6	2.112821486243
54	653	17.7	2.0734537062934
54	654	17.8	1.7346189513104
54	658	17.9	1.918560988293
54	659	18	2.2004110452021
54	660	18.1	1.4868409618968
54	709	18.2	1.9132956806337
54	715	18.3	1.4581157591427
54	716	18.4	2.2608241496608
54	720	18.5	1.3380491270916
54	721	18.6	1.9400737909134
54	722	18.7	2.5982016386464
54	723	18.8	1.371465191734
54	724	18.9	2.3841378326295
54	725	19	2.0450243328232
54	726	19.1	2.4600969824241
54	785	19.2	0.36362117490551
54	824	19.3	-0.38357417886145
54	825	19.4	0.55225082857069
54	826	19.5	0.062389430659824
54	877	19.6	-0.066594341886237
54	898	19.7	0.10840515401215
54	899	19.8	-0.50640971274115
54	900	19.9	0.31825747943948
54	901	20	-0.38992214838508
54	916	20.1	0.19587913861033
54	923	20.2	-0.25298671470955
54	929	20.3	0.10341932123993
54	930	20.4	0.16878602125216
54	931	20.5	-0.02988396922591
54	983	20.6	-0.31685759245885
54	986	20.7	0.030634879157887
54	987	20.8	-0.22468639605213
54	988	20.9	0.65015378284734
54	989	21	-0.62230812108609
54	991	21.1	-0.19180854458828
54	1012	21.2	0.47112649700138
54	1013	21.3	0.38212404157967
54	1070	21.4	-0.51167749965098
54	1079	21.5	0.46967714063356
54	1136	21.6	-0.89791561672463
54	1137	21.7	-0.043425122043121
54	1138	21.8	0.22042975744698
54	1139	21.9	0.38180278143846
54	1172	22	0.05225405860692
54	1173	22.1	-0.36051488446537
54	1184	22.2	-0.23934708531016
54	1185	22.3	0.26872130506673
54	1194	22.4	0.083252954762418
54	1195	22.5	-0.43444355621467
54	1203	22.6	0.11870980521199
54	1204	22.7	1.0185860015219
54	1237	22.8	-0.082299154903733
54	1238	22.9	-0.33803750597871
54	1243	23	0.15133909932336
54	1282	23.1	-0.59054287106264
54	1283	23.2	0.56132120224648
54	1284	23.3	0.11590898700524
54	1305	23.4	-0.92960139240605
54	1364	23.5	0.78097143380438
54	1365	23.6	-0.1708862352185
54	1366	23.7	0.26923044947909
54	1371	23.8	-0.76399592391681
54	1386	23.9	0.11632796006742
54	1387	24	0.41140901497565
54	1393	24.1	-0.2161267128773
54	1394	24.2	0.13493483255152
54	1395	24.3	0.54421714604832
54	1398	24.4	0.054661422991202
54	1432	24.5	-0.23557941175532
54	1433	24.6	-0.22572602713479
54	1434	24.7	-0.31338433073834
54	1435	24.8	0.2034480317263
54	1437	24.9	0.30570770902559
54	1438	25	-0.069394619204104
54	1439	25.1	-0.78095330751967
54	1510	25.2	1.0702242701082
54	1519	25.3	-0.072504056734033
54	1578	25.4	-0.87085597182158
54	1582	25.5	0.96445779839996
54	1583	25.6	-0.58596099298448
54	1584	25.7	0.67280122200026
54	1585	25.8	-0.97735316290054
54	1586	25.9	-0.011486540292385
54	1587	26	0.02488151751459
54	1588	26.1	0.29261973844841
54	1598	26.2	0.27711642878129
54	1599	26.3	-0.14586889254861
54	1607	26.4	0.36563879190945
54	1608	26.5	0.021669941279097
54	1609	26.6	-0.81636545427608
54	1610	26.7	0.34693379092495
54	1649	26.8	0.19963310319
54	1650	26.9	-0.18670075212139
54	1651	27	-0.81590293864096
54	1684	27.1	-3.9522233394643
54	1749	27.2	-2.7487425574958
54	1814	27.3	-4.4838806276743
54	1815	27.4	-3.0533773971715
54	1816	27.5	-2.7020805584778
54	1901	27.6	-3.8753078726665
54	1902	27.7	-3.7765612432194
54	1908	27.8	-3.002003402254
54	1909	27.9	-3.1982360585317
54	1910	28	-2.866545286421
54	1961	28.1	-3.1606838553067
54	2034	28.2	-3.2829256569944
54	2093	28.3	-3.2630739498941
54	2094	28.4	-3.3750814844567
54	2095	28.5	-2.0939681297642
54	2106	28.6	-3.3618271612704
54	2127	28.7	-3.978420554193
54	2128	28.8	-2.2544990438856
54	2129	28.9	-2.7874407574833
54	2130	29	-2.9033519056348
54	2136	29.1	-3.3087898298847
54	2203	29.2	-2.0275406680066
54	2211	29.3	-3.3183023933544
54	2212	29.4	-2.2247898599649
54	2233	29.5	-2.9577053293317
54	2266	29.6	-3.1509849921335
54	2269	29.7	-1.7375850800315
54	2270	29.8	-3.2538485520841
54	2271	29.9	-2.7903033059575
54	2272	30	-1.5418870286341
54	2273	30.1	-3.3995023117535
54	2281	30.2	-1.4712452188317
54	2282	30.3	-3.0778827566434
54	2283	30.4	-1.1507514156596
54	2380	30.5	-2.4833610390239
54	2385	30.6	-2.7212029682417
54	2386	30.7	2.6
54	2387	30.8	2.6
54	2388	30.9	2.6
54	2389	31	2.6
54	2450	31.1	1.8306936612586
54	2471	31.2	2.6
54	2472	31.3	2.6
54	2473	31.4	2.6
54	2487	31.5	2.6
54	2488	31.6	2.1821514941985
54	2489	31.7	2.447715544072
54	2504	31.8	1.9253966168035
54	2505	31.9	1.3883262547431
54	2506	32	2.5574407423614
54	2513	32.1	1.9658099158667
54	2516	32.2	2.0045727471821
54	2517	32.3	1.5855190002359
54	2518	32.4	2.5235486628255
54	2575	32.5	1.6943182630697
54	2576	32.6	2.0053946945583
54	2577	32.7	2.4297847633017
54	2579	32.8	2.4357222178485
54	2580	32.9	2.1974759830395
54	2627	33	2.5017061232123
54	2628	33.1	2.3250266240677
54	2629	33.2	1.7983960252488
54	2630	33.3	2.3978848113678
54	2631	33.4	2.2062237460166
54	2640	33.5	1.9669725708664
54	2673	33.6	2.1599311571801
54	2674	33.7	1.7331379727693
54	2675	33.8	2.0849600718124
54	2702	33.9	1.9293645872269
54	2716	34	2.269487883267
54	2717	34.1	1.5986601229059
54	2756	34.2	2.4939964101184
54	2757	34.3	2.4254528745543
54	2814	34.4	1.7998085318599
54	2815	34.5	1.9845985603053
54	2834	34.6	2.0151564389234
54	2835	34.7	1.9033521255711
54	2836	34.8	2.0345582131296
54	2892	34.9	1.9411993319169
54	2919	35	1.5381273143226
54	2920	35.1	2.5701438870048
54	2970	35.2	2.1951157804113
54	2971	35.3	1.7323569086613
54	3000	35.4	2.5822479731636
54	3015	35.5	1.4986469758023
54	3017	35.6	-0.24063666879666
54	3018	35.7	-0.2358809247613
54	3057	35.8	-0.22678819394205
54	3064	35.9	1.0791902682744
54	3068	36	-0.13877270543016
54	3069	36.1	-0.78430747198873
54	3076	36.2	0.97290923751425
54	3153	36.3	-0.66989948700648
54	3156	36.4	0.28789390765597
54	3158	36.5	-0.55718252765947
54	3159	36.6	0.44276969768108
54	3198	36.7	-0.3491214720998
54	3224	36.8	-0.0018776519689645
54	3233	36.9	0.60904257914517
54	3234	37	-0.47450297079049
54	3235	37.1	0.65949155569541
54	3236	37.2	-0.22480155634693
54	3247	37.3	0.23843480283393
54	3298	37.4	-0.67565646022558
54	3299	37.5	-0.14855288995895
54	3332	37.6	0.57901260533836
54	3338	37.7	-0.23354411686306
54	3341	37.8	-0.33418261311017
54	3380	37.9	0.54536626671908
54	3381	38	-0.24193666840439
54	3402	38.1	-0.30266227042302
54	3459	38.2	-0.058260009903464
54	3474	38.3	0.93330431154465
54	3482	38.4	0.063917498919182
54	3483	38.5	-1.0988447701559
54	3488	38.6	0.12569087350276
54	3509	38.7	0.27058857723604
53	175	8.2	0.25389976076828
53	176	8.3	0.50083860135362
53	177	8.4	0.74518827593374
53	178	8.5	0.98642690152434
53	179	8.6	1.2453906241021
53	180	8.7	1.4489385323218
53	181	8.8	1.6936016405639
53	182	8.9	1.8613799458429
53	183	9	2.0683426582401
53	184	9.1	2.2972287202964
53	194	9.2	2.5173429852089
53	195	9.3	2.7032984260673
53	196	9.4	2.9557546349469
53	197	9.5	3.1354591054533
53	198	9.6	3.3364785163168
53	199	9.7	3.5371966152748
53	200	9.8	3.7555943864531
53	201	9.9	4.0155871909059
53	202	10	4.1517242753359
53	203	10.1	4.2972855867532
53	224	10.2	4.5303144765196
53	225	10.3	4.7140325116266
53	226	10.4	4.8808407532394
53	227	10.5	5.0773934362403
53	228	10.6	5.2199098701023
53	229	10.7	5.4419306911102
53	230	10.8	5.6148415406181
53	231	10.9	5.8117099534667
53	232	11	6.0415887421503
53	233	11.1	6.1879313060635
53	236	11.2	6.4027909495372
53	237	11.3	6.6622646958142
53	238	11.4	6.8701174914225
53	239	11.5	7.0854487764899
53	240	11.6	7.3062107628321
53	241	11.7	7.5643974710692
53	250	11.8	7.7363339338887
53	251	11.9	7.9470595434627
53	252	12	8.1436280491732
53	253	12.1	8.3472809822548
53	280	12.2	8.1819647255185
53	309	12.3	7.8743498924248
53	310	12.4	7.5531436591101
53	311	12.5	7.2425204225816
53	312	12.6	6.9573713250672
53	313	12.7	6.6459887524811
53	314	12.8	6.3731262200454
53	315	12.9	6.1198166752047
53	316	13	5.9218464016352
53	317	13.1	5.6127381952485
53	321	13.2	5.3500923568737
53	324	13.3	5.1749112582436
53	325	13.4	4.8220608407666
53	326	13.5	4.631813185826
53	327	13.6	4.3904198867359
53	328	13.7	4.2090077079888
53	355	13.8	3.9960556450721
53	356	13.9	3.7714987603267
53	357	14	3.4863119625314
53	358	14.1	3.2717911001143
53	379	14.2	3.5317911001143
53	406	14.3	3.7917911001143
53	407	14.4	4.0517911001143
53	408	14.5	4.3117911001143
53	409	14.6	4.5717911001143
53	410	14.7	4.8317911001143
53	414	14.8	5.0917911001143
53	415	14.9	5.3517911001143
53	416	15	5.6117911001143
53	417	15.1	5.8684764441417
53	428	15.2	6.0163750329136
53	446	15.3	6.226087503276
53	447	15.4	6.3717869839828
53	448	15.5	6.6285984219482
53	449	15.6	6.8077083839743
53	450	15.7	6.9735691636928
53	451	15.8	7.2313758458627
53	452	15.9	7.4208564350602
53	467	16	7.5998281275795
53	468	16.1	7.8105118378496
53	503	16.2	8.0658274409605
53	505	16.3	8.2677961670572
53	506	16.4	8.4956343292037
53	507	16.5	8.6681986293371
53	508	16.6	8.8020697948487
53	509	16.7	8.9797717336181
53	510	16.8	9.1936859458766
53	537	16.9	9.3954273779399
53	547	17	9.6200375605712
53	548	17.1	9.8567142517503
53	584	17.2	10.03920680639
53	623	17.3	10.286563266519
53	624	17.4	10.485048559915
53	651	17.5	10.69255550322
53	652	17.6	10.903837651844
53	653	17.7	11.111183022474
53	654	17.8	11.284644917605
53	658	17.9	11.476501016434
53	659	18	11.696542120954
53	660	18.1	11.845226217144
53	709	18.2	12.036555785207
53	715	18.3	12.182367361122
53	716	18.4	12.408449776088
53	720	18.5	12.542254688797
53	721	18.6	12.736262067888
53	722	18.7	12.996082231753
53	723	18.8	13.133228750926
53	724	18.9	13.371642534189
53	725	19	13.576144967471
53	726	19.1	13.822154665714
53	785	19.2	13.858516783204
53	824	19.3	13.820159365318
53	825	19.4	13.875384448175
53	826	19.5	13.881623391241
53	877	19.6	13.874963957053
53	898	19.7	13.885804472454
53	899	19.8	13.83516350118
53	900	19.9	13.866989249124
53	901	20	13.827997034285
53	916	20.1	13.847584948146
53	923	20.2	13.822286276675
53	929	20.3	13.832628208799
53	930	20.4	13.849506810925
53	931	20.5	13.846518414002
53	983	20.6	13.814832654756
53	986	20.7	13.817896142672
53	987	20.8	13.795427503067
53	988	20.9	13.860442881351
53	989	21	13.798212069243
53	991	21.1	13.779031214784
53	1012	21.2	13.826143864484
53	1013	21.3	13.864356268642
53	1070	21.4	13.813188518677
53	1079	21.5	13.86015623274
53	1136	21.6	13.770364671068
53	1137	21.7	13.766022158863
53	1138	21.8	13.788065134608
53	1139	21.9	13.826245412752
53	1172	22	13.831470818613
53	1173	22.1	13.795419330166
53	1184	22.2	13.771484621635
53	1185	22.3	13.798356752142
53	1194	22.4	13.806682047618
53	1195	22.5	13.763237691997
53	1203	22.6	13.775108672518
53	1204	22.7	13.87696727267
53	1237	22.8	13.86873735718
53	1238	22.9	13.834933606582
53	1243	23	13.850067516514
53	1282	23.1	13.791013229408
53	1283	23.2	13.847145349632
53	1284	23.3	13.858736248333
53	1305	23.4	13.765776109092
53	1364	23.5	13.843873252473
53	1365	23.6	13.826784628951
53	1366	23.7	13.853707673899
53	1371	23.8	13.777308081507
53	1386	23.9	13.788940877514
53	1387	24	13.830081779012
53	1393	24.1	13.808469107724
53	1394	24.2	13.821962590979
53	1395	24.3	13.876384305584
53	1398	24.4	13.881850447883
53	1432	24.5	13.858292506707
53	1433	24.6	13.835719903994
53	1434	24.7	13.80438147092
53	1435	24.8	13.824726274093
53	1437	24.9	13.855297044995
53	1438	25	13.848357583075
53	1439	25.1	13.770262252323
53	1510	25.2	13.877284679334
53	1519	25.3	13.87003427366
53	1578	25.4	13.782948676478
53	1582	25.5	13.879394456318
53	1583	25.6	13.82079835702
53	1584	25.7	13.88807847922
53	1585	25.8	13.79034316293
53	1586	25.9	13.7891945089
53	1587	26	13.791682660652
53	1588	26.1	13.820944634497
53	1598	26.2	13.848656277375
53	1599	26.3	13.83406938812
53	1607	26.4	13.870633267311
53	1608	26.5	13.872800261439
53	1609	26.6	13.791163716011
53	1610	26.7	13.825857095104
53	1649	26.8	13.845820405423
53	1650	26.9	13.827150330211
53	1651	27	13.745560036346
53	1684	27.1	13.3503377024
53	1749	27.2	13.07546344665
53	1814	27.3	12.627075383883
53	1815	27.4	12.321737644166
53	1816	27.5	12.051529588318
53	1901	27.6	11.663998801051
53	1902	27.7	11.28634267673
53	1908	27.8	10.986142336504
53	1909	27.9	10.666318730651
53	1910	28	10.379664202009
53	1961	28.1	10.063595816478
53	2034	28.2	9.7353032507787
53	2093	28.3	9.4089958557893
53	2094	28.4	9.0714877073436
53	2095	28.5	8.8620908943672
53	2106	28.6	8.5259081782402
53	2127	28.7	8.1280661228209
53	2128	28.8	7.9026162184323
53	2129	28.9	7.623872142684
53	2130	29	7.3335369521205
53	2136	29.1	7.0026579691321
53	2203	29.2	6.7999039023314
53	2211	29.3	6.468073662996
53	2212	29.4	6.2455946769995
53	2233	29.5	5.9498241440663
53	2266	29.6	5.6347256448529
53	2269	29.7	5.4609671368498
53	2270	29.8	5.1355822816414
53	2271	29.9	4.8565519510456
53	2272	30	4.7023632481822
53	2273	30.1	4.3624130170069
53	2281	30.2	4.2152884951237
53	2282	30.3	3.9075002194594
53	2283	30.4	3.7924250778934
53	2380	30.5	3.544088973991
53	2385	30.6	3.2719686771669
53	2386	30.7	3.5319686771669
53	2387	30.8	3.7919686771669
53	2388	30.9	4.0519686771669
53	2389	31	4.3119686771669
53	2450	31.1	4.4950380432927
53	2471	31.2	4.7550380432927
53	2472	31.3	5.0150380432927
53	2473	31.4	5.2750380432927
53	2487	31.5	5.5350380432927
53	2488	31.6	5.7532531927126
53	2489	31.7	5.9980247471198
53	2504	31.8	6.1905644088001
53	2505	31.9	6.3293970342744
53	2506	32	6.5851411085106
53	2513	32.1	6.7817221000972
53	2516	32.2	6.9821793748154
53	2517	32.3	7.140731274839
53	2518	32.4	7.3930861411216
53	2575	32.5	7.5625179674286
53	2576	32.6	7.7630574368844
53	2577	32.7	8.0060359132146
53	2579	32.8	8.2496081349994
53	2580	32.9	8.4693557333034
53	2627	33	8.7195263456246
53	2628	33.1	8.9520290080314
53	2629	33.2	9.1318686105562
53	2630	33.3	9.371657091693
53	2631	33.4	9.5922794662947
53	2640	33.5	9.7889767233813
53	2673	33.6	10.004969839099
53	2674	33.7	10.178283636376
53	2675	33.8	10.386779643558
53	2702	33.9	10.57971610228
53	2716	34	10.806664890607
53	2717	34.1	10.966530902897
53	2756	34.2	11.215930543909
53	2757	34.3	11.458475831365
53	2814	34.4	11.638456684551
53	2815	34.5	11.836916540581
53	2834	34.6	12.038432184474
53	2835	34.7	12.228767397031
53	2836	34.8	12.432223218344
53	2892	34.9	12.626343151535
53	2919	35	12.780155882968
53	2920	35.1	13.037170271668
53	2970	35.2	13.256681849709
53	2971	35.3	13.429917540575
53	3000	35.4	13.688142337892
53	3015	35.5	13.838007035472
53	3017	35.6	13.813943368592
53	3018	35.7	13.790355276116
53	3057	35.8	13.767676456722
53	3064	35.9	13.875595483549
53	3068	36	13.861718213006
53	3069	36.1	13.783287465808
53	3076	36.2	13.880578389559
53	3153	36.3	13.813588440858
53	3156	36.4	13.842377831624
53	3158	36.5	13.786659578858
53	3159	36.6	13.830936548626
53	3198	36.7	13.796024401416
53	3224	36.8	13.795836636219
53	3233	36.9	13.856740894134
53	3234	37	13.809290597055
53	3235	37.1	13.875239752624
53	3236	37.2	13.852759596989
53	3247	37.3	13.876603077273
53	3298	37.4	13.80903743125
53	3299	37.5	13.794182142254
53	3332	37.6	13.852083402788
53	3338	37.7	13.828728991102
53	3341	37.8	13.795310729791
53	3380	37.9	13.849847356463
53	3381	38	13.825653689622
53	3402	38.1	13.79538746258
53	3459	38.2	13.78956146159
53	3474	38.3	13.882891892744
53	3482	38.4	13.889283642636
53	3483	38.5	13.779399165621
53	3488	38.6	13.791968252971
53	3509	38.7	13.819027110694
52	159	8.1	1756.3437279736
52	175	8.2	1756.3437279736
52	176	8.3	1756.3185059097
52	177	8.4	1756.2687532706
52	178	8.5	1756.1947272605
52	179	8.6	1756.0967369268
52	180	8.7	1755.9730214821
52	181	8.8	1755.8290858595
52	182	8.9	1755.6608457297
52	183	9	1755.4759387268
52	184	9.1	1755.2704723238
52	194	9.2	1755.0422686845
52	195	9.3	1754.7921991875
52	196	9.4	1754.5236571249
52	197	9.5	1754.2300363989
52	198	9.6	1753.9185640704
52	199	9.7	1753.5871227415
52	200	9.8	1753.2357423442
52	201	9.9	1752.8626666033
52	202	10	1752.4637635238
52	203	10.1	1752.0513367678
52	224	10.2	1751.6244501451
52	225	10.3	1751.1744147431
52	226	10.4	1750.7061290363
52	227	10.5	1750.2212728211
52	228	10.6	1749.7168913244
52	229	10.7	1749.1983524351
52	230	10.8	1748.6577582933
52	231	10.9	1748.0999874182
52	232	11	1747.5226598974
52	233	11.1	1746.922496524
52	236	11.2	1746.3077956755
52	237	11.3	1745.6717509563
52	238	11.4	1745.009930461
52	239	11.5	1744.327462146
52	240	11.6	1743.6207756267
52	241	11.7	1742.890678728
52	250	11.8	1742.1347816818
52	251	11.9	1741.3617033247
52	252	12	1740.567567525
52	253	12.1	1739.7537889774
52	280	12.2	1738.9196597473
52	309	12.3	1738.1020502825
52	310	12.4	1737.3151802314
52	311	12.5	1736.560407759
52	312	12.6	1735.8366753248
52	313	12.7	1735.1414373427
52	314	12.8	1734.4773152779
52	315	12.9	1733.8404598901
52	316	13	1733.2289172834
52	317	13.1	1732.6371575007
52	321	13.2	1732.0762863621
52	324	13.3	1731.541660964
52	325	13.4	1731.0245411075
52	326	13.5	1730.5426809778
52	327	13.6	1730.0798319645
52	328	13.7	1729.6411049626
52	355	13.8	1729.2205061633
52	356	13.9	1728.8211872922
52	357	14	1728.4443079989
52	358	14.1	1728.095926925
52	379	14.2	1727.7689825467
52	406	14.3	1727.4160568219
52	407	14.4	1727.0371497505
52	408	14.5	1726.6322613326
52	409	14.6	1726.2013915682
52	410	14.7	1725.7445404572
52	414	14.8	1725.2617079997
52	415	14.9	1724.7528941957
52	416	15	1724.2180990451
52	417	15.1	1723.657322548
52	428	15.2	1723.0732648644
52	446	15.3	1722.4750950348
52	447	15.4	1721.8560748305
52	448	15.5	1721.2225686555
52	449	15.6	1720.5731269645
52	450	15.7	1719.9812290148
52	451	15.8	1719.3749102572
52	452	15.9	1718.7461764315
52	467	16	1718.2962206252
52	468	16.1	1717.9047798024
52	503	16.2	1717.5024873914
52	505	16.3	1717.2906846357
52	506	16.4	1717.1825437658
52	507	16.5	1717.0714228252
52	508	16.6	1716.9818268246
52	509	16.7	1716.9914063509
52	510	16.8	1717.0011792749
52	537	16.9	1717.0111850075
52	547	17	1717.0214103006
52	548	17.1	1717.0318800429
52	584	17.2	1717.0426073667
52	623	17.3	1717.0535333021
52	624	17.4	1717.064728442
52	651	17.5	1717.0761395988
52	652	17.6	1717.0877765908
52	653	17.7	1717.0996435269
52	654	17.8	1717.1117361224
52	658	17.9	1717.1240175011
52	659	18	1717.1365076819
52	660	18.1	1717.1492373393
52	709	18.2	1717.1621288135
52	715	18.3	1717.1752285168
52	716	18.4	1717.1884869107
52	720	18.5	1717.201991356
52	721	18.6	1717.2156414249
52	722	18.7	1717.2295026371
52	723	18.8	1717.2436466184
52	724	18.9	1717.25793986
52	725	19	1717.2724925736
52	726	19.1	1717.2872678527
52	785	19.2	1717.3023108707
52	824	19.3	1717.3173934625
52	825	19.4	1717.3324343089
52	826	19.5	1717.3475352582
52	877	19.6	1717.3626429975
52	898	19.7	1717.3777434892
52	899	19.8	1717.392855779
52	900	19.9	1717.4079129548
52	901	20	1717.4230047674
52	916	20.1	1717.4380541437
52	923	20.2	1717.4531248381
52	929	20.3	1717.4681679993
52	930	20.4	1717.4832224159
52	931	20.5	1717.4982952019
52	983	20.6	1717.5133647356
52	986	20.7	1717.5283997848
52	987	20.8	1717.5434381681
52	988	20.9	1717.5584520981
52	989	21	1717.5735367861
52	991	21.1	1717.5885537467
52	1012	21.2	1717.5728565468
52	1013	21.3	1717.5538183994
52	1070	21.4	1717.5347276348
52	1079	21.5	1717.5157073265
52	1136	21.6	1717.4966223452
52	1137	21.7	1717.477661004
52	1138	21.8	1717.4587056422
52	1139	21.9	1717.439719928
52	1172	22	1717.4206816408
52	1173	22.1	1717.4016361584
52	1184	22.2	1717.3826403177
52	1185	22.3	1717.3636774343
52	1194	22.4	1717.3446775489
52	1195	22.5	1717.3256661998
52	1203	22.6	1717.3067146721
52	1204	22.7	1717.2877467986
52	1237	22.8	1717.268638669
52	1238	22.9	1717.2495418718
52	1243	23	1717.2304916212
52	1282	23.1	1717.1241042708
52	1283	23.2	1716.6756487512
52	1284	23.3	1715.6490312878
52	1305	23.4	1714.3054871019
52	1364	23.5	1712.9306633955
52	1365	23.6	1711.5462765066
52	1366	23.7	1710.1635984796
52	1371	23.8	1708.7782281489
52	1386	23.9	1707.4004977751
52	1387	24	1706.021604122
52	1393	24.1	1704.63859638
52	1394	24.2	1703.2577499045
52	1395	24.3	1701.8755540811
52	1398	24.4	1700.487916088
52	1432	24.5	1699.0997314808
52	1433	24.6	1697.713902667
52	1434	24.7	1696.3303311127
52	1435	24.8	1694.9498934007
52	1437	24.9	1693.5674212091
52	1438	25	1692.1818919414
52	1439	25.1	1690.7970566196
52	1510	25.2	1689.4200308284
52	1519	25.3	1688.0323027979
52	1578	25.4	1686.6452998078
52	1582	25.5	1685.2670051939
52	1583	25.6	1683.8790655135
52	1584	25.7	1682.4969854439
52	1585	25.8	1681.108177361
52	1586	25.9	1679.7291428113
52	1587	26	1678.3502231271
52	1588	26.1	1676.9710546277
52	1598	26.2	1675.5889599304
52	1599	26.3	1674.2040940683
52	1607	26.4	1672.8206868954
52	1608	26.5	1671.433623334
52	1609	26.6	1670.0463430731
52	1610	26.7	1668.6672264682
52	1649	26.8	1667.2846405247
52	1650	26.9	1665.9000582499
52	1651	27	1664.5173429829
52	1684	27.1	1663.1427867467
52	1749	27.2	1661.8077527506
52	1814	27.3	1660.5002061847
52	1815	27.4	1659.2374984326
52	1816	27.5	1658.0053244597
52	1901	27.6	1656.800171297
52	1902	27.7	1655.6337712195
52	1908	27.8	1654.5051367609
52	1909	27.9	1653.4065223413
52	1910	28	1652.3398902878
52	1961	28.1	1651.3019236919
52	2034	28.2	1650.29556394
52	2093	28.3	1649.3220334502
52	2094	28.4	1648.3811337054
52	2095	28.5	1647.4739847812
52	2106	28.6	1646.5877755418
52	2127	28.7	1645.7351845797
52	2128	28.8	1644.9223778299
52	2129	28.9	1644.1321160743
52	2130	29	1643.3697287311
52	2136	29.1	1642.6363749118
52	2203	29.2	1641.9361089964
52	2211	29.3	1641.2561184911
52	2212	29.4	1640.6093110153
52	2233	29.5	1639.984751442
52	2266	29.6	1639.3897689269
52	2269	29.7	1638.8262962671
52	2270	29.8	1638.280199461
52	2271	29.9	1637.7666411459
52	2272	30	1637.2809858686
52	2273	30.1	1636.8107494642
52	2281	30.2	1636.3745080887
52	2282	30.3	1635.9529791679
52	2283	30.4	1635.5622290798
52	2380	30.5	1635.1829865079
52	2385	30.6	1634.8285775505
52	2386	30.7	1634.5013806274
52	2387	30.8	1634.1481836999
52	2388	30.9	1633.7689867681
52	2389	31	1633.3637898318
52	2450	31.1	1632.9325928911
52	2471	31.2	1632.5067392334
52	2472	31.3	1632.113374648
52	2473	31.4	1631.6985013404
52	2487	31.5	1631.3196708456
52	2488	31.6	1631.0678496397
52	2489	31.7	1631.133117045
52	2504	31.8	1631.4171558745
52	2505	31.9	1631.9349813356
52	2506	32	1632.4644198037
52	2513	32.1	1633.0905077857
52	2516	32.2	1633.7685968788
52	2517	32.3	1634.4667292425
52	2518	32.4	1635.1807148531
52	2575	32.5	1635.9199328573
52	2576	32.6	1636.6760919677
52	2577	32.7	1637.4523025672
52	2579	32.8	1638.2528080363
52	2580	32.9	1639.0776677425
52	2627	33	1639.9244995152
52	2628	33.1	1640.796345283
52	2629	33.2	1641.6914384676
52	2630	33.3	1642.6045134082
52	2631	33.4	1643.5415642582
52	2640	33.5	1644.5006746416
52	2673	33.6	1645.47945234
52	2674	33.7	1646.4798267028
52	2675	33.8	1647.4975303212
52	2702	33.9	1648.5360809849
52	2716	34	1649.5939229299
52	2717	34.1	1650.6744569723
52	2756	34.2	1651.7709756565
52	2757	34.3	1652.8924312482
52	2814	34.4	1654.038138396
52	2815	34.5	1655.2018414233
52	2834	34.6	1656.3853880038
52	2835	34.7	1657.589083679
52	2836	34.8	1658.8118105426
52	2892	34.9	1660.0548804949
52	2919	35	1661.3173600613
52	2920	35.1	1662.5952190157
52	2970	35.2	1663.898776259
52	2971	35.3	1665.2242819698
52	3000	35.4	1666.5671091265
52	3015	35.5	1667.9357555981
52	3017	35.6	1669.3193867027
52	3018	35.7	1670.7006117356
52	3057	35.8	1672.0794782483
52	3064	35.9	1673.456077157
52	3068	36	1674.8434666458
52	3069	36.1	1676.2294685776
52	3076	36.2	1677.6076283959
52	3153	36.3	1678.9955161141
52	3156	36.4	1680.3767056586
52	3158	36.5	1681.7607737892
52	3159	36.6	1683.1392707775
52	3198	36.7	1684.5221949201
52	3224	36.8	1685.9016281539
52	3233	36.9	1687.2810420667
52	3234	37	1688.6665456558
52	3235	37.1	1690.0473047992
52	3236	37.2	1691.4346580466
52	3247	37.3	1692.819763555
52	3298	37.4	1694.2072531181
52	3299	37.5	1695.5879869479
52	3332	37.6	1696.9672354317
52	3338	37.7	1698.352273329
52	3341	37.8	1699.7349760726
52	3380	37.9	1701.1143374012
52	3381	38	1702.4991517214
52	3402	38.1	1703.8815469726
52	3459	38.2	1705.2609159736
52	3474	38.3	1706.6397024461
52	3482	38.4	1708.0278208133
52	3483	38.5	1709.4165782769
52	3488	38.6	1710.7943486449
52	3509	38.7	1712.173375767
51	159	8.1	6437.2324310417
51	175	8.2	6437.2324310417
51	176	8.3	6437.235330632
51	177	8.4	6437.2410503172
51	178	8.5	6437.2495605287
51	179	8.6	6437.2608257375
51	180	8.7	6437.275048368
51	181	8.8	6437.2915955598
51	182	8.9	6437.3109368572
51	183	9	6437.3321942192
51	184	9.1	6437.3558151401
51	194	9.2	6437.3820499895
51	195	9.3	6437.4107985914
51	196	9.4	6437.4416708447
51	197	9.5	6437.4754262025
51	198	9.6	6437.5112338244
51	199	9.7	6437.5493371314
51	200	9.8	6437.5897326826
51	201	9.9	6437.6326223836
51	202	10	6437.6784812587
51	203	10.1	6437.7258948488
51	224	10.2	6437.7749707805
51	225	10.3	6437.8267079527
51	226	10.4	6437.8805432246
51	227	10.5	6437.9362834827
51	228	10.6	6437.994268415
51	229	10.7	6438.0538809159
51	230	10.8	6438.1160289426
51	231	10.9	6438.1801516486
51	232	11	6438.2465226346
51	233	11.1	6438.315518886
51	236	11.2	6438.3861864013
51	237	11.3	6438.4593076601
51	238	11.4	6438.5353921654
51	239	11.5	6438.6138503945
51	240	11.6	6438.6572483481
51	241	11.7	6438.6835261547
51	250	11.8	6438.7107325659
51	251	11.9	6438.7385573706
51	252	12	6438.7671400794
51	253	12.1	6438.7964297742
51	280	12.2	6438.8264519352
51	309	12.3	6438.8558795132
51	310	12.4	6438.8842007115
51	311	12.5	6438.9113666468
51	312	12.6	6438.9374153823
51	313	12.7	6438.9624385392
51	314	12.8	6438.9863417653
51	315	12.9	6439.0092636032
51	316	13	6439.0312743779
51	317	13.1	6439.052573125
51	321	13.2	6439.0727601212
51	324	13.3	6439.092002475
51	325	13.4	6439.1106147656
51	326	13.5	6439.1279579804
51	327	13.6	6439.1446169429
51	328	13.7	6439.1604077008
51	355	13.8	6439.1755459844
51	356	13.9	6439.1899183562
51	357	14	6439.2034830779
51	358	14.1	6439.2160220854
51	379	14.2	6439.2277895387
51	406	14.3	6439.2404921183
51	407	14.4	6439.2541298242
51	408	14.5	6439.2687026563
51	409	14.6	6439.2842106148
51	410	14.7	6439.3006536995
51	414	14.8	6439.3180319105
51	415	14.9	6439.3363452478
51	416	15	6439.3555937114
51	417	15.1	6439.3757773013
51	428	15.2	6439.3301076234
51	446	15.3	6439.2661653313
51	447	15.4	6439.199994206
51	448	15.5	6439.1322745804
51	449	15.6	6439.0320187128
51	450	15.7	6438.6958436638
51	451	15.8	6438.3514781558
51	452	15.9	6437.9943817596
51	467	16	6437.4278097289
51	468	16.1	6436.7764778679
51	503	16.2	6436.1070896758
51	505	16.3	6435.3446625021
51	506	16.4	6434.5250685406
51	507	16.5	6433.6828887803
51	508	16.6	6432.8221417704
51	509	16.7	6431.9419246424
51	510	16.8	6431.0439371157
51	537	16.9	6430.124557921
51	547	17	6429.1850043506
51	548	17.1	6428.2229895029
51	584	17.2	6427.2373067133
51	623	17.3	6426.2333744577
51	624	17.4	6425.204706271
51	651	17.5	6424.1561893261
51	652	17.6	6423.0869214475
51	653	17.7	6421.9965251106
51	654	17.8	6420.8853939975
51	658	17.9	6419.7569164949
51	659	18	6418.6092531612
51	660	18.1	6417.4395854633
51	709	18.2	6416.2550491844
51	715	18.3	6415.0513797281
51	716	18.4	6413.8331289461
51	720	18.5	6412.5922696619
51	721	18.6	6411.3380297322
51	722	18.7	6410.0643888409
51	723	18.8	6408.7647656336
51	724	18.9	6407.4514276163
51	725	19	6406.1142479458
51	726	19.1	6404.7566177962
51	785	19.2	6403.3743863931
51	824	19.3	6401.9885187363
51	825	19.4	6400.6064868656
51	826	19.5	6399.2189324229
51	877	19.6	6397.8307540786
51	898	19.7	6396.4432416855
51	899	19.8	6395.0546452284
51	900	19.9	6393.6711129267
51	901	20	6392.2843980136
51	916	20.1	6390.9015823669
51	923	20.2	6389.5168079063
51	929	20.3	6388.1345633419
51	930	20.4	6386.7512845725
51	931	20.5	6385.3663179233
51	983	20.6	6383.9816501173
51	986	20.7	6382.6001509237
51	987	20.8	6381.2183453779
51	988	20.9	6379.8387867218
51	989	21	6378.452726453
51	991	21.1	6377.0728893372
51	1012	21.2	6375.6950146259
51	1013	21.3	6374.3124334909
51	1070	21.4	6372.9260312075
51	1079	21.5	6371.5447455759
51	1136	21.6	6370.158763286
51	1137	21.7	6368.7817599362
51	1138	21.8	6367.4051908273
51	1139	21.9	6366.0264174737
51	1172	22	6364.6438261842
51	1173	22.1	6363.2607123667
51	1184	22.2	6361.8812036113
51	1185	22.3	6360.5040882692
51	1194	22.4	6359.1242857786
51	1195	22.5	6357.7436507786
51	1203	22.6	6356.3673601096
51	1204	22.7	6354.9898823711
51	1237	22.8	6353.6022190176
51	1238	22.9	6352.2153786358
51	1243	23	6350.8319185478
51	1282	23.1	6349.4535274553
51	1283	23.2	6348.1759708494
51	1284	23.3	6347.2990083989
51	1305	23.4	6347.0189204069
51	1364	23.5	6346.9887673894
51	1365	23.6	6346.9873080919
51	1366	23.7	6346.9858505957
51	1371	23.8	6346.9843902616
51	1386	23.9	6346.9829379808
51	1387	24	6346.9814844738
51	1393	24.1	6346.9800266301
51	1394	24.2	6346.9785710646
51	1395	24.3	6346.9771140767
51	1398	24.4	6346.9756513522
51	1432	24.5	6346.9741880515
51	1433	24.6	6346.972727234
51	1434	24.7	6346.971268796
51	1435	24.8	6346.9698136613
51	1437	24.9	6346.9683563822
51	1438	25	6346.9668958805
51	1439	25.1	6346.9654361103
51	1510	25.2	6346.9639845722
51	1519	25.3	6346.9625217528
51	1578	25.4	6346.9610596976
51	1582	25.5	6346.9598593003
51	1583	25.6	6346.9593357471
51	1584	25.7	6346.9588144042
51	1585	25.8	6346.9582905233
51	1586	25.9	6346.9577703292
51	1587	26	6346.9572501785
51	1588	26.1	6346.9567299338
51	1598	26.2	6346.9562085854
51	1599	26.3	6346.9556861917
51	1607	26.4	6346.9551643481
51	1608	26.5	6346.9546411254
51	1609	26.6	6346.9541178209
51	1610	26.7	6346.9535975958
51	1649	26.8	6346.9530760621
51	1650	26.9	6346.9525537753
51	1651	27	6346.9520321928
51	1684	27.1	6346.9515136879
51	1749	27.2	6346.9510100916
51	1814	27.3	6346.9505168639
51	1815	27.4	6346.9500405501
51	1816	27.5	6346.9495757542
51	1901	27.6	6346.949121151
51	1902	27.7	6346.9486811661
51	1908	27.8	6346.9482554269
51	1909	27.9	6346.9478410118
51	1910	28	6346.947438661
51	1961	28.1	6346.9470471232
51	2034	28.2	6346.9466675081
51	2093	28.3	6346.9463002767
51	2094	28.4	6346.9459453541
51	2095	28.5	6346.9456031629
51	2106	28.6	6346.9452688704
51	2127	28.7	6346.9449472594
51	2128	28.8	6346.9446406555
51	2129	28.9	6346.944342556
51	2130	29	6346.9440549712
51	2136	29.1	6346.9437783383
51	2203	29.2	6346.9435141867
51	2211	29.3	6346.9432576833
51	2212	29.4	6346.9430136971
51	2233	29.5	6346.9427781031
51	2266	29.6	6346.9425536661
51	2269	29.7	6346.9423411152
51	2270	29.8	6346.9421351186
51	2271	29.9	6346.9419413961
51	2272	30	6346.9417581991
51	2273	30.1	6346.9415808184
51	2281	30.2	6346.9414162611
51	2282	30.3	6346.9412572536
51	2283	30.4	6346.9411098563
51	2380	30.5	6346.9409667999
51	2385	30.6	6346.9408331111
51	2386	30.7	6346.9407096871
51	2387	30.8	6346.9405764556
51	2388	30.9	6346.9404334164
51	2389	31	6346.9402805695
51	2450	31.1	6346.9401179151
51	2471	31.2	6346.863572003
51	2472	31.3	6346.59813086
51	2473	31.4	6346.3181757013
51	2487	31.5	6345.9726906986
51	2488	31.6	6345.4810397728
51	2489	31.7	6344.9676496491
51	2504	31.8	6344.442042083
51	2505	31.9	6344.0996091168
51	2506	32	6343.7494965814
51	2513	32.1	6343.640173711
51	2516	32.2	6343.6404294971
51	2517	32.3	6343.6406928439
51	2518	32.4	6343.6409621708
51	2575	32.5	6343.6412410158
51	2576	32.6	6343.6415262512
51	2577	32.7	6343.6418190504
51	2579	32.8	6343.642121014
51	2580	32.9	6343.6424321644
51	2627	33	6343.642751603
51	2628	33.1	6343.6430804773
51	2629	33.2	6343.6434181209
51	2630	33.3	6343.6437625475
51	2631	33.4	6343.6441160182
51	2640	33.5	6343.6444778101
51	2673	33.6	6343.6448470209
51	2674	33.7	6343.6452243782
51	2675	33.8	6343.6456082725
51	2702	33.9	6343.6460000305
51	2716	34	6343.6463990656
51	2717	34.1	6343.6468066605
51	2756	34.2	6343.647220285
51	2757	34.3	6343.6476433162
51	2814	34.4	6343.6480754954
51	2815	34.5	6343.648514463
51	2834	34.6	6343.6489609159
51	2835	34.7	6343.6494149693
51	2836	34.8	6343.6498762016
51	2892	34.9	6343.6503451077
51	2919	35	6343.6508213354
51	2920	35.1	6343.6513033644
51	2970	35.2	6343.6517950872
51	2971	35.3	6343.6522950894
51	3000	35.4	6343.6528016255
51	3015	35.5	6343.653317901
51	3017	35.6	6343.653839829
51	3018	35.7	6343.6543608494
51	3057	35.8	6343.6548809801
51	3064	35.9	6343.6554002554
51	3068	36	6343.6559236011
51	3069	36.1	6343.6564464235
51	3076	36.2	6343.6569662876
51	3153	36.3	6343.6574898212
51	3156	36.4	6343.6580108282
51	3158	36.5	6343.6585329211
51	3159	36.6	6343.6590529124
51	3198	36.7	6343.6595745737
51	3224	36.8	6343.6602653372
51	3233	36.9	6343.6617199038
51	3234	37	6343.6631808917
51	3235	37.1	6343.6646368768
51	3236	37.2	6343.6660998152
51	3247	37.3	6343.6675603834
51	3298	37.4	6343.6690234655
51	3299	37.5	6343.6704794238
51	3332	37.6	6343.6719338159
51	3338	37.7	6343.6733943128
51	3341	37.8	6343.6748523474
51	3380	37.9	6343.6763068584
51	3381	38	6343.6777671196
51	3402	38.1	6343.6792248298
51	3459	38.2	6343.680679349
51	3474	38.3	6343.6821332539
51	3482	38.4	6343.6835969991
51	3483	38.5	6343.6850614182
51	3488	38.6	6343.6865142516
51	3509	38.7	6343.6879684103
13	40	2.3	1.4309021354274
13	41	2.4	1.5843964237599
13	42	2.5	1.6612379235842
13	43	2.6	1.860333995049
13	44	2.7	1.902440209896
13	45	2.8	2.0964817650527
13	46	2.9	1.9353337638279
13	47	3	2.426400888677
13	48	3.1	2.068065907182
13	63	3.2	2.4008393576396
13	64	3.3	2.4992495751963
13	65	3.4	2.4007332520247
13	66	3.5	2.5190458699115
13	67	3.6	2.7111150771871
13	68	3.7	2.825286502975
13	69	3.8	2.9810105426588
13	70	3.9	2.7164707756693
13	71	4	3.5055670321553
13	72	4.1	3.9229908696862
13	82	4.2	3.9032641762101
13	83	4.3	3.691535583917
13	84	4.4	3.7080152136665
13	85	4.5	3.07797652119
13	86	4.6	3.0231592460158
13	87	4.7	4.4550390490054
13	88	4.8	2.7225656697675
13	89	4.9	2.1275006151995
13	90	5	0.973
13	91	5.1	1.3575205934279
13	100	5.2	0.973
13	101	5.3	2.3020786255489
13	102	5.4	1.613330357252
13	103	5.5	1.7400320261296
13	104	5.6	0.973
13	105	5.7	0.973
13	106	5.8	1.3189556856636
13	107	5.9	1.8590592321141
13	108	6	1.6720726179372
13	109	6.1	1.6437285729119
13	118	6.2	0.973
13	119	6.3	1.9318826708182
13	120	6.4	0.973
13	121	6.5	2.4979280309226
13	122	6.6	0.973
13	123	6.7	1.8214790696689
13	124	6.8	1.4397396496705
13	125	6.9	0.973
13	126	7	1.2989113881542
13	127	7.1	1.5904663899807
13	142	7.2	0.973
13	143	7.3	2.1407968259651
13	152	7.4	0.973
13	153	7.5	1.9897127095334
13	154	7.6	1.2639434630379
13	155	7.7	1.9428731750212
13	156	7.8	1.657927478995
13	157	7.9	0.973
13	158	8	1.5985224778862
13	159	8.1	0.973
13	175	8.2	2.9293050580188
13	176	8.3	1.307547813473
13	177	8.4	1.4376924006143
13	178	8.5	0.973
13	179	8.6	0.973
13	180	8.7	2.6310450325761
13	181	8.8	0.973
13	182	8.9	0.973
13	183	9	1.5418685582854
13	184	9.1	1.6083992242353
13	194	9.2	0.973
13	195	9.3	2.5269470287343
13	196	9.4	0.973
13	197	9.5	2.530400396084
13	198	9.6	0.973
13	199	9.7	1.3157649973296
13	200	9.8	1.4647375384738
13	201	9.9	0.973
13	202	10	0.973
13	203	10.1	0.973
13	224	10.2	0.973
13	225	10.3	0.973
13	226	10.4	0.973
13	227	10.5	0.973
13	228	10.6	0.973
13	229	10.7	0.973
13	230	10.8	3.519540124054
13	231	10.9	3.6959823526564
13	232	11	3.8725678748446
13	233	11.1	4.0493064325257
13	236	11.2	3.9302027815684
13	237	11.3	4.3860673205522
13	238	11.4	4.5633052983073
13	239	11.5	4.7407343325522
13	240	11.6	4.0864455635657
13	241	11.7	0.973
13	250	11.8	0.973
13	251	11.9	2.6341046809522
13	252	12	0.973
13	253	12.1	0.973
13	280	12.2	1.3530137205716
13	309	12.3	2.2140644323154
13	310	12.4	1.2206819231969
13	311	12.5	2.1494481624532
13	312	12.6	0.973
13	313	12.7	1.3822034021979
13	314	12.8	2.1761684148053
13	315	12.9	0.973
13	316	13	1.6187025887996
13	317	13.1	0.973
13	321	13.2	0.973
13	324	13.3	1.3705412809096
13	325	13.4	2.1172424596938
13	326	13.5	1.7539603225097
13	327	13.6	0.973
13	328	13.7	2.504697933786
13	355	13.8	0.973
13	356	13.9	0.973
13	357	14	0.973
13	358	14.1	2.2742978137323
13	379	14.2	1.3317863683711
13	406	14.3	1.9629814048944
13	407	14.4	0.973
13	408	14.5	1.4968628650732
13	409	14.6	1.3440469106841
13	410	14.7	1.3968549676025
13	414	14.8	0.973
13	415	14.9	0.973
13	416	15	2.6832419539293
13	417	15.1	0.973
13	428	15.2	2.3570451398132
13	446	15.3	1.3588100511455
13	447	15.4	0.973
13	448	15.5	2.4932503345928
13	449	15.6	0.973
13	450	15.7	0.973
13	451	15.8	0.973
13	452	15.9	1.4617495544126
13	467	16	1.3265335179011
13	468	16.1	1.310949829755
13	503	16.2	2.8360671352839
13	505	16.3	0.973
13	506	16.4	1.7693481841027
13	507	16.5	1.2642326384259
13	508	16.6	0.973
13	509	16.7	1.9794918801205
13	510	16.8	0.973
13	537	16.9	2.0799224442716
13	547	17	0.973
13	548	17.1	2.5977040009149
13	584	17.2	0.973
13	623	17.3	1.8764037107917
13	624	17.4	0.973
13	651	17.5	2.7469433045664
13	652	17.6	0.973
13	653	17.7	0.973
13	654	17.8	1.400609505929
13	658	17.9	0.973
13	659	18	0.973
13	660	18.1	0.973
13	709	18.2	0.973
13	715	18.3	0.973
13	716	18.4	0.973
13	720	18.5	0.973
13	721	18.6	0.973
13	722	18.7	0.973
13	723	18.8	3.5755831703194
13	724	18.9	3.7520698692694
13	725	19	3.9287029569355
13	726	19.1	4.1054921752249
13	785	19.2	4.2824472660446
13	824	19.3	4.4595779713019
13	825	19.4	4.636894032904
13	826	19.5	4.814405192758
13	877	19.6	2.641032564596
13	898	19.7	0.973
13	899	19.8	1.3928709568039
13	900	19.9	1.3998161727696
13	901	20	2.0219745912814
13	916	20.1	1.295033494866
13	923	20.2	0.973
13	929	20.3	0.973
13	930	20.4	0.973
13	931	20.5	0.973
13	983	20.6	0.973
13	986	20.7	0.973
13	987	20.8	0.973
13	988	20.9	0.973
13	989	21	0.973
13	991	21.1	0.973
13	1012	21.2	0.973
13	1013	21.3	3.5686344575501
13	1070	21.4	3.7451155898628
13	1079	21.5	3.921742727171
13	1136	21.6	4.0985256113818
13	1137	21.7	4.2754739844024
13	1138	21.8	4.4525975881399
13	1139	21.9	4.2331448944059
13	1172	22	4.7867747567496
13	1173	22.1	3.1830579052611
13	1184	22.2	0.973
13	1185	22.3	0.973
13	1194	22.4	2.5868691650799
13	1195	22.5	0.973
13	1203	22.6	1.4396845114623
13	1204	22.7	1.6911436737549
13	1237	22.8	0.973
13	1238	22.9	2.4441695498108
13	1243	23	0.973
13	1282	23.1	1.8513286977815
13	1283	23.2	1.6231515196716
13	1284	23.3	1.6892714169238
13	1305	23.4	0.973
13	1364	23.5	1.4549629051595
13	1365	23.6	2.6781563026612
13	1366	23.7	0.973
13	1371	23.8	1.3909965622051
13	1386	23.9	2.1399114767818
13	1387	24	0.973
13	1393	24.1	0.973
13	1394	24.2	2.5478066496597
13	1395	24.3	0.973
13	1398	24.4	0.973
13	1432	24.5	0.973
13	1433	24.6	1.4948643607927
13	1434	24.7	1.2667998369699
13	1435	24.8	2.6359058389369
13	1437	24.9	1.8110140964151
13	1438	25	0.973
13	1439	25.1	1.9041588607433
13	1510	25.2	0.973
13	1519	25.3	0.973
13	1578	25.4	2.5672112297237
13	1582	25.5	0.973
13	1583	25.6	2.0438723723977
13	1584	25.7	0.973
13	1585	25.8	1.7031356211145
13	1586	25.9	0.973
13	1587	26	0.973
13	1588	26.1	2.1221865328824
13	1598	26.2	1.7656155901905
13	1599	26.3	1.2548110538259
13	1607	26.4	0.973
13	1608	26.5	0.973
13	1609	26.6	0.973
13	1610	26.7	0.973
13	1649	26.8	0.973
13	1650	26.9	0.973
13	1651	27	0.973
13	1684	27.1	0.973
13	1749	27.2	0.973
13	1814	27.3	0.973
13	1815	27.4	3.5101544387711
13	1816	27.5	3.6865893148967
13	1901	27.6	3.8631669661848
13	1902	27.7	4.0398971345424
13	1908	27.8	4.2167895618768
13	1909	27.9	4.3938539900951
13	1910	28	4.5711001611045
13	1961	28.1	4.7485378168121
13	2034	28.2	3.9333098303491
13	2093	28.3	0.973
13	2094	28.4	3.579742918535
13	2095	28.5	3.9547472751562
13	2106	28.6	3.8379180627717
13	2127	28.7	4.1709886717079
13	2128	28.8	4.2549278922926
13	2129	28.9	4.3216721940835
13	2130	29	3.8195480401023
13	2136	29.1	3.7144560447903
13	2203	29.2	5.5024448740236
13	2211	29.3	4.4849068233549
13	2212	29.4	5.6264642432739
13	2233	29.5	5.3691933719784
13	2266	29.6	4.5085673855989
13	2269	29.7	6.5353792031626
13	2270	29.8	6.5711771861739
13	2271	29.9	4.4969385083881
13	2272	30	4.4524729541993
13	2273	30.1	4.6579890842827
13	2281	30.2	4.6015309127197
13	2282	30.3	6.2217325158465
13	2283	30.4	7.394001386947
13	2380	30.5	6.5023843299601
13	2385	30.6	6.2416103167912
13	2386	30.7	6.1542818502502
13	2387	30.8	6.7172338338398
13	2388	30.9	7.3581480775181
13	2389	31	6.8236591535629
13	2450	31.1	5.2078133518611
13	2471	31.2	5.2106665610403
13	2472	31.3	5.2424699938908
13	2473	31.4	8.475545219982
13	2487	31.5	6.8072508430626
13	2488	31.6	0.973
13	2489	31.7	0.973
13	2504	31.8	0.973
13	2505	31.9	0.973
13	2506	32	0.973
13	2513	32.1	0.973
13	2516	32.2	0.973
13	2517	32.3	0.973
13	2518	32.4	0.973
13	2575	32.5	0.973
13	2576	32.6	0.973
13	2577	32.7	0.973
13	2579	32.8	0.973
13	2580	32.9	0.973
13	2627	33	0.973
13	2628	33.1	0.973
13	2629	33.2	0.973
13	2630	33.3	0.973
13	2631	33.4	0.973
13	2640	33.5	0.973
13	2673	33.6	0.973
13	2674	33.7	0.973
13	2675	33.8	0.973
13	2702	33.9	0.973
13	2716	34	0.973
13	2717	34.1	0.973
13	2756	34.2	0.973
13	2757	34.3	0.973
13	2814	34.4	0.973
13	2815	34.5	0.973
13	2834	34.6	0.973
13	2835	34.7	0.973
13	2836	34.8	0.973
13	2892	34.9	0.973
13	2919	35	0.973
13	2920	35.1	0.973
13	2970	35.2	0.973
13	2971	35.3	0.973
13	3000	35.4	0.973
13	3015	35.5	0.973
13	3017	35.6	0.973
13	3018	35.7	0.973
13	3057	35.8	0.973
13	3064	35.9	0.973
13	3068	36	0.973
13	3069	36.1	0.973
13	3076	36.2	0.973
13	3153	36.3	0.973
13	3156	36.4	0.973
13	3158	36.5	0.973
13	3159	36.6	0.973
13	3198	36.7	0.973
13	3224	36.8	0.973
13	3233	36.9	0.973
13	3234	37	0.973
13	3235	37.1	0.973
13	3236	37.2	0.973
13	3247	37.3	0.973
13	3298	37.4	0.973
13	3299	37.5	0.973
13	3332	37.6	0.973
13	3338	37.7	0.973
13	3341	37.8	0.973
13	3380	37.9	0.973
13	3381	38	0.973
13	3402	38.1	0.973
13	3459	38.2	0.973
13	3474	38.3	0.973
13	3482	38.4	0.973
13	3483	38.5	1.1127371825228
13	3488	38.6	1.1128108509862
13	3509	38.7	0.973
13	3510	38.8	1.1123922702741
13	3516	38.9	1.1120722606745
13	3517	39	1.1118650758436
13	3540	39.1	1.111740608845
13	3569	39.2	1.111564289249
13	3571	39.3	1.1117509741103
13	3604	39.4	1.1114927324587
13	3605	39.5	1.1112995747695
13	3606	39.6	1.1112068642559
13	3609	39.7	1.111203130763
13	3618	39.8	1.1110732863605
13	3619	39.9	1.1110129640272
13	3620	40	1.1108876714575
13	3685	40.1	1.1108427917984
13	3688	40.2	1.1107409447098
13	3689	40.3	1.1106893300544
13	3694	40.4	1.1106267629752
13	3721	40.5	1.1105812820549
13	3748	40.6	1.1104910546391
13	3749	40.7	1.1104529548624
13	3750	40.8	1.1104174061223
13	3751	40.9	1.1103798806157
13	3752	41	1.1103481994451
13	3762	41.1	1.1103116634792
13	3763	41.2	1.1102803165204
13	3764	41.3	1.1102559012938
13	3765	41.4	1.1102361531405
13	3769	41.5	1.110211093554
13	3773	41.6	1.1101977592796
13	3774	41.7	1.1101759246938
13	3775	41.8	1.1101560633388
13	3802	41.9	1.1101472827742
13	3859	42	1.1101319280548
13	3860	42.1	1.1101146656162
13	3861	42.2	1.110105494818
13	3862	42.3	1.1100979197699
13	3863	42.4	1.110087579319
13	3934	42.5	1.1100762072136
13	3935	42.6	1.1100701209683
13	3944	42.7	1.1100633951696
13	3965	42.8	1.1100582109134
13	3995	42.9	1.110052691603
13	4004	43	1.1100464355762
13	4005	43.1	1.1100434415222
13	4006	43.2	1.1100387493546
13	4007	43.3	1.1100342055429
13	4008	43.4	1.1100306727905
13	4018	43.5	1.1100285883091
13	4051	43.6	1.1100249581417
13	4052	43.7	1.1100230703052
13	4055	43.8	1.1100202219603
13	4103	43.9	1.1100188268457
13	4104	44	1.1100169025034
13	4105	44.1	1.1100147991324
13	4106	44.2	1.1100136334375
13	4107	44.3	1.1100120767313
13	4172	44.4	1.1100109441719
13	4173	44.5	1.1100103082543
13	4178	44.6	1.1100089092817
13	4179	44.7	1.1100082457251
13	4180	44.8	1.1100073388872
13	4187	44.9	1.1100067777728
13	4188	45	1.1100062087315
13	4189	45.1	1.110005455083
13	4190	45.2	1.1100049645635
13	4191	45.3	1.1100044536124
13	4200	45.4	1.1100040080767
13	4201	45.5	1.1100036583171
13	4236	45.6	1.1100032148142
13	4237	45.7	1.1100030069442
13	4282	45.8	1.1100026398483
13	4283	45.9	1.1100024413883
13	4284	46	1.1100021988049
13	4361	46.1	1.1100019122241
13	4910	46.2	1.1100017515474
13	4911	46.3	1.1100016102365
13	4944	46.4	1.1100014644544
13	4971	46.5	1.1100012597423
13	5033	46.6	1.1100011699429
13	5072	46.7	1.110001066024
13	5079	46.8	1.1100009412784
13	5080	46.9	1.1100008549683
13	5081	47	1.1100007636755
13	5092	47.1	1.1100007044974
13	5189	47.2	1.1100006300776
13	5222	47.3	1.1100005825447
13	5227	47.4	1.1100005037964
13	5231	47.5	1.1100004606197
13	5239	47.6	1.1100004217358
13	5283	47.7	1.1100003713776
13	5284	47.8	1.1100003448017
13	5285	47.9	1.1100003005427
13	5286	48	1.110000274889
13	5287	48.1	1.1100002546828
13	5291	48.2	1.1100002200711
13	5296	48.3	1.1100002017357
13	5297	48.4	1.1100001889344
13	5338	48.5	1.1100001617826
13	5339	48.6	1.1100001525413
13	5345	48.7	1.1100001370822
13	5346	48.8	1.1100001237685
13	5385	48.9	1.1100001076659
13	5386	49	1.110000098166
13	5387	49.1	1.1100000914177
13	5432	49.2	1.110000079316
13	5471	49.3	1.1100000743547
13	5504	49.4	1.1100000647837
13	5509	49.5	1.1100000590906
13	5510	49.6	1.1100000531461
13	5555	49.7	1.1100000477723
13	5556	49.8	1.1100000444485
13	5562	49.9	1.1100000400209
13	5563	50	1.1100000352046
13	5564	50.1	1.110000032723
13	5571	50.2	1.1100000285155
13	5703	50.3	1.1100000264266
13	5708	50.4	1.110000024293
13	5709	50.5	1.1100000212533
13	5710	50.6	1.1100000191988
13	5737	50.7	1.1100000178308
13	5738	50.8	1.1100000161945
13	5739	50.9	1.1100000142788
13	5740	51	1.1100000129173
13	5741	51.1	1.1100000117649
13	5742	51.2	1.1100000105788
13	5760	51.3	1.110000009515
13	5807	51.4	1.1100000083317
13	5808	51.5	1.1100000077612
13	5809	51.6	1.1100000068041
13	5850	51.7	1.1100000061359
13	5851	51.8	1.1100000056302
13	5852	51.9	1.110000005168
13	5853	52	1.1100000045459
13	5854	52.1	1.273712230086
13	5855	52.2	1.4505181986848
13	5856	52.3	1.5599548338697
13	5862	52.4	1.7291697858535
13	5883	52.5	1.7771705809636
13	5884	52.6	1.8616407708302
13	5890	52.7	2.1140090723769
13	5935	52.8	2.2036968699579
13	5936	52.9	2.5285933609439
13	5937	53	2.5203916716968
13	5938	53.1	2.289707506978
13	5959	53.2	2.7960144387473
13	5960	53.3	3.0355373094375
13	5961	53.4	3.068387673075
13	5990	53.5	2.6775060700965
13	5991	53.6	3.1628027009296
13	6030	53.7	2.5359521175329
13	6037	53.8	3.4120891974681
13	6038	53.9	2.6318100849208
13	6077	54	2.7582778841557
13	6078	54.1	3.2352846226708
13	6119	54.2	3.5724881177122
13	6128	54.3	3.1346349816945
13	6129	54.4	3.2824759888815
13	6133	54.5	3.9679056324249
13	6134	54.6	4.5579298716275
13	6140	54.7	4.4541164450249
13	6141	54.8	3.2246521506423
13	6186	54.9	4.585762327698
13	6192	55	3.4302143370362
13	6193	55.1	4.8213731234112
13	6199	55.2	5.1364408312636
13	6200	55.3	5.4723079405855
13	6245	55.4	4.3724572965124
13	6246	55.5	3.7925495091318
13	6247	55.6	4.365791582154
13	6248	55.7	5.2026700797343
13	6301	55.8	6.1891248100893
13	6308	55.9	4.8473140896193
13	6309	56	4.2005158515833
13	6310	56.1	5.2799624285898
13	6311	56.2	5.5519771302813
13	6312	56.3	6.2037486899558
13	6319	56.4	5.5198323726365
13	6384	56.5	5.4743023900798
13	6385	56.6	5.6196971231092
13	6424	56.7	5.5223140177829
13	6531	56.8	7.3012683803954
13	6532	56.9	6.827457361663
13	6533	57	5.8482408044876
13	6534	57.1	6.5139202329709
13	6581	57.2	5.498130016679
13	6582	57.3	7.57150392826
13	6583	57.4	7.1003632793496
13	6644	57.5	5.7788316869978
13	6645	57.6	6.8848260635583
13	6715	57.7	8.5952129129784
13	6768	57.8	7.0317627592745
13	6769	57.9	7.7812648677909
13	6770	58	5.8216357429311
13	6771	58.1	9.0422080932687
13	6809	58.2	7.2254265569094
13	6810	58.3	7.0683185380693
13	6811	58.4	7.4438502378052
13	6850	58.5	9.8177085846483
13	6883	58.6	9.2076474990208
13	6948	58.7	10.174151456938
13	6954	58.8	7.6193108222574
13	7057	58.9	7.0216336541884
13	7058	59	6.5422387199375
13	7059	59.1	0.973
13	7064	59.2	3.7453137274146
13	7065	59.3	0.973
13	7066	59.4	2.0827876674847
13	7071	59.5	3.2585510429433
13	7076	59.6	0.973
13	7085	59.7	3.604386548709
13	7086	59.8	3.4705670417178
13	7100	59.9	0.973
13	7101	60	2.5550308406505
13	7110	60.1	0.973
13	7155	60.2	4.1120571520902
13	7156	60.3	0.973
13	7157	60.4	4.0784049254998
13	7208	60.5	2.6692788027043
13	7265	60.6	0.973
13	7266	60.7	3.8581973226527
13	7267	60.8	3.0592617445006
13	7312	60.9	0.973
13	7313	61	2.5223624134912
13	7340	61.1	2.2242681926807
13	7347	61.2	1.1710011440906
13	7362	61.3	1.3233601406458
13	7401	61.4	2.7943781018927
13	7459	61.5	3.2860365196006
13	7468	61.6	2.5746283573773
13	7469	61.7	1.3093880079647
13	7470	61.8	3.0300672331273
13	7477	61.9	0.973
13	7478	62	2.3112702751632
13	7526	62.1	1.7325147660367
13	7541	62.2	0.973
13	7543	62.3	1.5073781394659
13	7549	62.4	4.1920779410604
13	7613	62.5	0.973
13	7646	62.6	1.9276150441047
13	7647	62.7	3.9038313163382
13	7730	62.8	1.5644073554775
13	7731	62.9	2.8365237693815
13	7740	63	1.770118442788
13	7747	63.1	3.9163035124251
13	7749	63.2	0.973
13	7750	63.3	0.973
13	7751	63.4	3.9257286782328
13	7760	63.5	0.973
13	7765	63.6	1.4104187514305
13	7766	63.7	2.111860478874
13	7778	63.8	3.4125056240364
13	7779	63.9	0.973
13	7780	64	0.973
13	7781	64.1	4.7864902737273
13	7838	64.2	0.973
13	7883	64.3	2.1434968335118
13	7884	64.4	1.9913666771204
13	7941	64.5	5.0579291739682
13	7942	64.6	0.973
13	8031	64.7	0.973
13	8032	64.8	0.973
13	8033	64.9	4.7763026074652
13	8060	65	1.279441882644
13	8099	65.1	2.5477550350792
13	8108	65.2	0.973
13	8153	65.3	3.9254681956606
13	8154	65.4	0.973
13	8163	65.5	2.5725357857459
13	8164	65.6	4.2463028151917
13	8177	65.7	0.973
13	8178	65.8	0.973
13	8187	65.9	3.7105784195466
13	8229	66	0.973
13	8235	66.1	1.2870546547313
13	8236	66.2	4.1440426424919
13	8280	66.3	3.536471187542
13	8281	66.4	2.1344768287087
13	8352	66.5	0.973
13	8385	66.6	4.2829092620307
13	8386	66.7	0.973
13	8443	66.8	2.6729087482247
13	8520	66.9	2.7964256843536
13	8526	67	3.0149429431139
13	8527	67.1	1.3809783598537
13	8528	67.2	0.973
13	8534	67.3	2.7686818472648
13	8535	67.4	0.973
13	8545	67.5	1.5121883899265
13	8550	67.6	4.8443501967458
13	8551	67.7	0.973
13	8560	67.8	4.5307448286868
13	8627	67.9	0.973
13	8628	68	5.0211013859793
13	8629	68.1	2.3987715087377
13	8686	68.2	0.973
13	8687	68.3	3.7670483052277
13	8688	68.4	0.973
13	8721	68.5	3.8366248348271
13	8768	68.6	0.973
13	8769	68.7	1.627852941978
13	8822	68.8	1.8368031619265
13	8893	68.9	1.4422430802804
13	8938	69	1.9607651365667
13	8939	69.1	3.0154389266432
13	8948	69.2	2.4684306916659
13	8949	69.3	2.1855259379461
13	8950	69.4	2.6888148374672
13	8955	69.5	0.973
13	8961	69.6	4.8270970924586
13	8970	69.7	2.5500783335315
13	8977	69.8	2.8936108478916
13	8987	69.9	0.973
13	9032	70	2.0963531126158
13	9033	70.1	2.0354734606336
13	9072	70.2	0.973
13	9073	70.3	2.6329036013903
13	9106	70.4	4.6227793024144
13	9157	70.5	0.973
13	9214	70.6	5.567228691301
13	9215	70.7	0.973
13	9254	70.8	3.833510283247
13	9255	70.9	0.973
13	9261	71	3.0050445384001
13	9262	71.1	3.3918477010261
13	9268	71.2	0.973
13	9269	71.3	0.973
13	9274	71.4	3.0387531783519
13	9282	71.5	1.5275410070112
13	9353	71.6	4.7094862448675
13	9362	71.7	0.973
13	9368	71.8	2.5627729735516
13	9425	71.9	2.8713037321927
13	9426	72	2.5107765164998
13	9427	72.1	0.973
13	9490	72.2	4.3845039114065
13	9523	72.3	3.3776318838698
13	9524	72.4	0.973
13	9525	72.5	3.157168729824
13	9535	72.6	0.973
13	9536	72.7	0.973
13	9537	72.8	0.973
13	9546	72.9	0.973
13	9547	73	0.973
13	9548	73.1	0.973
13	9558	73.2	0.973
13	9563	73.3	0.973
13	9572	73.4	0.973
13	9573	73.5	0.973
13	9574	73.6	0.973
13	9575	73.7	0.973
13	9576	73.8	0.973
13	9671	73.9	0.973
13	9722	74	0.973
13	9723	74.1	0.973
13	9806	74.2	0.973
13	9807	74.3	0.973
13	9870	74.4	0.973
13	9871	74.5	0.973
13	9880	74.6	0.973
13	9881	74.7	0.973
13	9882	74.8	0.973
13	9896	74.9	0.973
13	9904	75	0.973
13	9906	75.1	0.973
13	9980	75.2	0.973
13	10043	75.3	0.973
13	10103	75.4	0.973
13	10104	75.5	0.973
13	10105	75.6	0.973
13	10106	75.7	0.973
13	10107	75.8	0.973
13	10108	75.9	0.973
13	10109	76	0.973
13	10110	76.1	0.973
13	10120	76.2	3.6278914312584
13	10174	76.3	3.8044205140594
13	10182	76.4	3.9810988737562
13	10183	76.5	3.4862709076893
13	10210	76.6	4.2947915117387
13	10211	76.7	4.4719348246269
13	10212	76.8	4.6492641730931
13	10213	76.9	4.8267892990446
13	10214	77	5.0045199443885
13	10215	77.1	3.6605444796096
13	10216	77.2	3.5740121718303
13	10223	77.3	4.6959807430732
13	10224	77.4	4.0182370453205
13	10233	77.5	3.8611154203165
13	10237	77.6	4.8541791734837
13	10238	77.7	0.973
13	10239	77.8	0.973
13	10240	77.9	0.973
13	10241	78	0.973
13	10304	78.1	0.973
13	10305	78.2	2.2386195279782
13	10306	78.3	1.6753501467293
13	10307	78.4	1.6162161686847
13	10308	78.5	1.3658149635621
13	10359	78.6	0.973
13	10360	78.7	1.9165837058484
13	10361	78.8	2.2540242521856
13	10362	78.9	0.973
13	10363	79	1.9484507407851
13	10373	79.1	0.973
13	10374	79.2	1.322784912224
13	10375	79.3	0.973
13	10420	79.4	1.3793993475047
13	10453	79.5	0.973
13	10461	79.6	3.0293640232395
13	10512	79.7	1.3223008636643
13	10513	79.8	1.4169653220017
13	10522	79.9	0.973
13	10591	80	0.973
13	10592	80.1	2.0427728473491
13	10593	80.2	1.3243131344722
13	10594	80.3	1.6307509438741
13	10615	80.4	1.6932457571239
13	10620	80.5	0.973
13	10621	80.6	2.0765992231892
13	10629	80.7	0.973
13	10630	80.8	2.6295766571038
13	10631	80.9	0.973
13	10642	81	2.2480413187848
13	10643	81.1	0.973
13	10644	81.2	1.2605902624385
13	10745	81.3	0.973
13	10747	81.4	2.8576357857345
13	10748	81.5	1.4081869757634
13	10799	81.6	0.973
13	10800	81.7	1.9092214556742
13	10801	81.8	0.973
13	10802	81.9	2.4769990689649
13	10803	82	1.3846970905968
13	10804	82.1	1.2569683381099
13	10805	82.2	1.3425618941973
13	10820	82.3	0.973
13	10853	82.4	2.0194386782699
13	10854	82.5	1.5338195771406
13	10862	82.6	1.9387593358161
13	10931	82.7	0.973
13	10932	82.8	1.2523884726489
13	10933	82.9	2.2873275169353
13	10934	83	0.973
13	10935	83.1	2.3284611244193
13	10986	83.2	0.973
13	11045	83.3	1.3206542845409
13	11050	83.4	1.573643905278
13	11095	83.5	1.7440438898293
13	11096	83.6	1.8423943524109
13	11169	83.7	1.6424005347247
13	11246	83.8	0.973
13	11315	83.9	2.2885328111535
13	11384	84	1.8943967541859
13	11385	84.1	0.973
13	11393	84.2	2.2689004113666
13	11401	84.3	1.7873874946926
13	11402	84.4	0.973
13	11409	84.5	0.973
13	11410	84.6	2.2735989350208
13	11420	84.7	0.973
13	11431	84.8	2.4820394549217
13	11442	84.9	0.973
13	11503	85	0.973
13	11554	85.1	2.2138567522568
13	11555	85.2	1.8381325073487
13	11588	85.3	0.973
13	11589	85.4	1.9683517013346
13	11640	85.5	1.5130195738159
13	11641	85.6	0.973
13	11698	85.7	2.0558131354708
13	11699	85.8	0.973
13	11700	85.9	1.7861801088516
13	11708	86	0.973
13	11784	86.1	2.5110295474379
13	11849	86.2	0.973
13	11854	86.3	1.5642543862311
13	11905	86.4	0.973
13	11913	86.5	2.9380246511237
13	11914	86.6	0.973
13	11923	86.7	2.2676190400685
13	11924	86.8	1.395988633462
13	11925	86.9	0.973
13	11982	87	1.4161116613429
13	11994	87.1	0.973
13	12003	87.2	2.4901236052279
13	12004	87.3	0.973
13	12068	87.4	0.973
13	12137	87.5	2.6653750911679
13	12138	87.6	1.2374840198216
13	12139	87.7	0.973
13	12140	87.8	0.973
13	12141	87.9	3.0044391941412
13	12274	88	0.973
13	12275	88.1	2.4620624684931
13	12308	88.2	0.973
13	12309	88.3	0.973
13	12318	88.4	1.6209775468023
13	12387	88.5	1.3652165667148
13	12388	88.6	1.5378802656394
13	12389	88.7	1.3050187382158
13	12440	88.8	1.6408301174014
13	12441	88.9	0.973
13	12460	89	1.2503535707213
13	12483	89.1	1.5509165059488
13	12488	89.2	2.0460531529934
13	12551	89.3	1.7236062269071
13	12552	89.4	0.973
13	12560	89.5	1.4862308473569
13	12561	89.6	0.973
13	12562	89.7	1.3884732726399
13	12638	89.8	1.694570020264
13	12701	89.9	1.5225714000333
13	12770	90	0.973
13	12772	90.1	1.7126731669916
13	12773	90.2	0.973
13	12783	90.3	1.4376117136481
13	12890	90.4	1.8827524762226
13	12891	90.5	0.973
13	12892	90.6	1.6750630126479
13	12893	90.7	2.0808415221843
13	12966	90.8	1.4983776024541
13	12976	90.9	1.6820325673358
13	12987	91	0.973
13	13020	91.1	1.9278156189965
13	13083	91.2	0.973
13	13084	91.3	2.1667060454465
12	40	2.3	2.4777397813476
12	41	2.4	2.4512885773154
12	42	2.5	2.1809804627107
12	43	2.6	2.3941136606723
12	44	2.7	2.1268818289131
12	45	2.8	2.2920502375518
12	46	2.9	1.6898664032656
12	47	3	2.4546854435278
12	48	3.1	1.5923508903848
12	63	3.2	2.0138064404013
12	64	3.3	2.0000768283615
12	65	3.4	1.71745660624
12	66	3.5	1.7681026779115
12	67	3.6	1.9014148032991
12	68	3.7	1.9215971733676
12	69	3.8	1.9843194504501
12	70	3.9	1.5934962075437
12	71	4	2.318484536279
12	72	4.1	2.5755732625723
12	82	4.2	2.4054226770764
12	83	4.3	2.0975643285317
12	84	4.4	2.0150650135707
12	85	4.5	1.4269468483282
12	86	4.6	1.3392482108204
12	87	4.7	2.3778175380314
12	88	4.8	1.0133400654376
12	89	4.9	0.5533305847086
12	90	5	-0.40199487328064
12	91	5.1	-0.024071145523337
12	100	5.2	-0.44526202066336
12	101	5.3	0.68768543063197
12	102	5.4	0.16679410189391
12	103	5.5	0.2597720684018
12	104	5.6	-0.6816470941063
12	105	5.7	-0.22804345020559
12	106	5.8	-0.052323130448348
12	107	5.9	0.35535233570262
12	108	6	0.2120749755064
12	109	6.1	0.18924193882849
12	118	6.2	-0.75963640201372
12	119	6.3	0.40987313576043
12	120	6.4	-0.45699431821704
12	121	6.5	0.83070571031421
12	122	6.6	-0.48029224690981
12	123	6.7	0.32415940300561
12	124	6.8	0.036416452680719
12	125	6.9	-0.43410794057418
12	126	7	-0.068080233829102
12	127	7.1	0.15234129466116
12	142	7.2	-0.26973386174068
12	143	7.3	0.56496508156415
12	152	7.4	-0.61088978303596
12	153	7.5	0.45308784022928
12	154	7.6	-0.095143054751681
12	155	7.7	0.4139228769578
12	156	7.8	0.19827201582957
12	157	7.9	-0.54124484246131
12	158	8	0.15651716678404
12	159	8.1	-0.71841094121337
12	175	8.2	1.1489599535009
12	176	8.3	-0.063987843529318
12	177	8.4	0.033316818950695
12	178	8.5	-0.36837230985984
12	179	8.6	-0.40933399971109
12	180	8.7	0.92344398072455
12	181	8.8	-0.66211927796248
12	182	8.9	-0.35445942927618
12	183	9	0.11606829406228
12	184	9.1	0.16534155830741
12	194	9.2	-0.37316871439107
12	195	9.3	0.85076899493579
12	196	9.4	-0.9885108100716
12	197	9.5	0.85597305048722
12	198	9.6	-0.70566301811486
12	199	9.7	-0.054675019369457
12	200	9.8	0.05856753155645
12	201	9.9	-3.1493596794561
12	202	10	-2.2332049923388
12	203	10.1	-2.1744186325849
12	224	10.2	-3.3182019221719
12	225	10.3	-1.8911265805175
12	226	10.4	-2.2404831294578
12	227	10.5	-2.4089277649865
12	228	10.6	-1.0068746568886
12	229	10.7	-3.0269313330475
12	230	10.8	2.6
12	231	10.9	2.6
12	232	11	2.6
12	233	11.1	2.6
12	236	11.2	2.3473551146453
12	237	11.3	2.6
12	238	11.4	2.6
12	239	11.5	2.6
12	240	11.6	2.0092787226073
12	241	11.7	-0.69350537911523
12	250	11.8	-0.36004594441037
12	251	11.9	0.9280368248932
12	252	12	-0.47055442121345
12	253	12.1	-0.47886255807244
12	280	12.2	-0.026526433811522
12	309	12.3	0.61934927161783
12	310	12.4	-0.12823915684129
12	311	12.5	0.56437662988901
12	312	12.6	-0.65501950893085
12	313	12.7	-0.005957063660027
12	314	12.8	0.5854504483752
12	315	12.9	-0.70538208219223
12	316	13	0.17242371893953
12	317	13.1	-0.41254160115495
12	321	13.2	-0.16708946777507
12	324	13.3	-0.012590814405122
12	325	13.4	0.54952063919045
12	326	13.5	0.27244574595243
12	327	13.6	-0.42007041370962
12	328	13.7	0.82913447627798
12	355	13.8	-0.3874408468837
12	356	13.9	-0.61511683287099
12	357	14	-0.1867380495416
12	358	14.1	0.6656288882019
12	379	14.2	-0.044494523806495
12	406	14.3	0.42643061482813
12	407	14.4	-0.34343080997933
12	408	14.5	0.079082330502569
12	409	14.6	-0.035705413250255
12	410	14.7	0.0040142758982231
12	414	14.8	-0.34185548583046
12	415	14.9	-0.45306087448261
12	416	15	0.9681463584071
12	417	15.1	-0.8742693586275
12	428	15.2	0.72605129855219
12	446	15.3	-0.024613267206588
12	447	15.4	-0.37771681370214
12	448	15.5	0.82048626651522
12	449	15.6	-0.54291059342213
12	450	15.7	-0.35069108104799
12	451	15.8	-0.1801126963459
12	452	15.9	0.055871491879227
12	467	16	-0.046779270772825
12	468	16.1	-0.058449974795805
12	503	16.2	1.0774521296145
12	505	16.3	-0.69826965206303
12	506	16.4	0.28444160046056
12	507	16.5	-0.09549144953489
12	508	16.6	-0.27861300532241
12	509	16.7	0.44177516044583
12	510	16.8	-0.15929373004473
12	537	16.9	0.51248584156856
12	547	17	-1.1951782989083
12	548	17.1	0.90519559497479
12	584	17.2	-0.88419888992794
12	623	17.3	0.3692256175913
12	624	17.4	-0.31176509773359
12	651	17.5	1.0130454001948
12	652	17.6	-0.34330606018193
12	653	17.7	-0.20218360547442
12	654	17.8	0.0078817378496776
12	658	17.9	-2.1894269840468
12	659	18	-2.7517917148862
12	660	18.1	-1.5774742337852
12	709	18.2	-2.593040126915
12	715	18.3	-3.2596881763348
12	716	18.4	-1.5637735650578
12	720	18.5	-1.9413093114828
12	721	18.6	-2.8962283126566
12	722	18.7	-2.2677295159124
12	723	18.8	2.6
12	724	18.9	2.6
12	725	19	2.6
12	726	19.1	2.6
12	785	19.2	2.6
12	824	19.3	2.6
12	825	19.4	2.6
12	826	19.5	2.6
12	877	19.6	0.93058010550698
12	898	19.7	-0.67227846002206
12	899	19.8	0.0019486076896946
12	900	19.9	0.0071634480264038
12	901	20	0.47102466945071
12	916	20.1	-0.073151941411194
12	923	20.2	-0.74763958589174
12	929	20.3	-0.55440640707095
12	930	20.4	-3.1824954992515
12	931	20.5	-2.3106976159709
12	983	20.6	-1.9295261205878
12	986	20.7	-2.8510763732153
12	987	20.8	-1.9702401651619
12	988	20.9	-1.9128145713087
12	989	21	-3.1658585568717
12	991	21.1	-1.421516079583
12	1012	21.2	-1.5214259587268
12	1013	21.3	2.6
12	1070	21.4	2.6
12	1079	21.5	2.6
12	1136	21.6	2.6
12	1137	21.7	2.6
12	1138	21.8	2.6
12	1139	21.9	2.2979019066319
12	1172	22	2.6
12	1173	22.1	1.3350887032749
12	1184	22.2	-0.33294793453533
12	1185	22.3	-0.55809148247354
12	1194	22.4	0.89017593681347
12	1195	22.5	-0.94875799140428
12	1203	22.6	0.038509136275389
12	1204	22.7	0.22737610593904
12	1237	22.8	-0.59690505140461
12	1238	22.9	0.79268572039436
12	1243	23	-0.6193955988856
12	1282	23.1	0.34920048061759
12	1283	23.2	0.175249298173
12	1284	23.3	0.22325673082378
12	1305	23.4	-0.85227930708789
12	1364	23.5	0.051404637284582
12	1365	23.6	0.96255128257908
12	1366	23.7	-0.73837757774163
12	1371	23.8	0.0016701915767037
12	1386	23.9	0.56194373657926
12	1387	24	-0.34077235662844
12	1393	24.1	-0.3047523930436
12	1394	24.2	0.86405626535416
12	1395	24.3	-0.20762727812398
12	1398	24.4	-0.45940664049703
12	1432	24.5	-0.44205790942069
12	1433	24.6	0.081938529433678
12	1434	24.7	-0.091718737874178
12	1435	24.8	0.93388784558046
12	1437	24.9	0.31141807348468
12	1438	25	-0.48464284127113
12	1439	25.1	0.38210566225462
12	1510	25.2	-0.71343760003802
12	1519	25.3	-0.3042598085478
12	1578	25.4	0.88085201368668
12	1582	25.5	-0.25343422987499
12	1583	25.6	0.48538139702287
12	1584	25.7	-0.34945787258912
12	1585	25.8	0.23192049530334
12	1586	25.9	-0.20864785036538
12	1587	26	-0.84434981090017
12	1588	26.1	0.55262545328588
12	1598	26.2	0.28072167676873
12	1599	26.3	-0.10281113120727
12	1607	26.4	-1.4937731476924
12	1608	26.5	-1.9442242971089
12	1609	26.6	-3.3411088475632
12	1610	26.7	-2.036772737085
12	1649	26.8	-2.6576317540064
12	1650	26.9	-1.7920864322646
12	1651	27	-3.0952935219523
12	1684	27.1	-1.8487512285998
12	1749	27.2	-1.2692790951772
12	1814	27.3	-2.7408731170945
12	1815	27.4	2.6
12	1816	27.5	2.6
12	1901	27.6	2.6
12	1902	27.7	2.6
12	1908	27.8	2.6
12	1909	27.9	2.6
12	1910	28	2.6
12	1961	28.1	2.6
12	2034	28.2	1.8949949132274
12	2093	28.3	-0.6702738184249
12	2094	28.4	1.6004047319526
12	2095	28.5	1.8100800075335
12	2106	28.6	1.6721669055754
12	2127	28.7	1.8386834279634
12	2128	28.8	1.8333746385295
12	2129	28.9	1.817886642646
12	2130	29	1.4616000483977
12	2136	29.1	1.363567066798
12	2203	29.2	2.3590931994375
12	2211	29.3	1.7139484655112
12	2212	29.4	2.2876199794235
12	2233	29.5	2.0793893738184
[...]
58	15353	103.9	5506.247295521
58	15354	104	5506.2012647474
58	15361	104.1	5506.1581715666
58	15362	104.2	5506.1177683015
58	15363	104.3	5506.0799274706
58	15372	104.4	5506.0449256701
58	15441	104.5	5506.0116596129
58	15442	104.6	5505.9808253589
58	15443	104.7	5505.9528079156
58	15506	104.8	5505.926926888
58	15507	104.9	5505.9031231054
58	15552	105	5505.8812470334
58	15554	105.1	5505.8609331981
58	15555	105.2	5505.8427251054
58	15556	105.3	5505.8252014688
58	15557	105.4	5505.8098769013
58	15568	105.5	5505.7952147516
58	15677	105.6	5505.7818448863
58	15678	105.7	5505.7696996519
58	15868	105.8	5505.7587652582
58	15869	105.9	5505.7486200901
58	15876	106	5505.7398051682
58	15877	106.1	5505.7313529452
58	15878	106.2	5505.7238312838
58	15879	106.3	5505.7169342261
58	15880	106.4	5505.7108978773
58	15931	106.5	5505.7053802007
58	15946	106.6	5505.7003290843
58	15947	106.7	5505.6957606181
58	16036	106.8	5505.6916782674
58	16081	106.9	5505.6880876706
58	16082	107	5505.6847772378
58	16083	107.1	5505.6818623208
58	16084	107.2	5505.679163071
58	16085	107.3	5505.6767667791
58	16086	107.4	5505.6745665487
58	16094	107.5	5505.6725884072
58	16095	107.6	5505.6707834671
58	16096	107.7	5505.6691479241
58	16182	107.8	5505.6676748042
58	16197	107.9	5505.6663371397
58	16198	108	5505.665129292
58	16199	108.1	5505.6640702227
58	16200	108.2	5505.6630716685
58	16201	108.3	5505.6621993363
58	16202	108.4	5505.6613819463
58	16293	108.5	5505.6606694753
58	16294	108.6	5505.6600013092
58	16295	108.7	5505.6593981037
58	16350	108.8	5505.6588722866
58	16351	108.9	5505.658386772
58	16352	109	5505.6579575973
58	16353	109.1	5505.6575714584
58	16354	109.2	5505.6572147223
58	16387	109.3	5505.6568866072
58	16388	109.4	5505.6565929309
58	16456	109.5	5505.6563305724
58	16525	109.6	5505.6560966976
58	16526	109.7	5505.6558761686
58	16533	109.8	5505.655679182
58	16534	109.9	5505.6555019484
58	16535	110	5505.655346293
58	16536	110.1	5505.6552020305
58	16537	110.2	5505.6550721421
58	16542	110.3	5505.6549532383
58	16543	110.4	5505.6548472334
58	16552	110.5	5505.6547513666
58	16563	110.6	5505.654666456
58	16608	110.7	5505.6545895845
58	16609	110.8	5505.6545203233
58	16610	110.9	5505.6544559305
58	16611	111	5505.654399471
58	16620	111.1	5505.6543473838
58	16621	111.2	5505.6543007976
58	16622	111.3	5505.654257017
58	16639	111.4	5505.6542182591
58	16640	111.5	5505.6541835297
58	16641	111.6	5505.6541517481
58	16648	111.7	5505.6541233222
58	16649	111.8	5505.6540983201
58	16650	111.9	5505.654075105
58	16651	112	5505.6540544492
58	16652	112.1	5505.6540359215
58	16715	112.2	5505.6540188711
58	16716	112.3	5505.6540035357
58	16717	112.4	5505.6539892331
58	16718	112.5	5505.6539766678
58	16763	112.6	5505.6539651399
58	16826	112.7	5505.6539546221
58	16827	112.8	5505.6539451077
58	16828	112.9	5505.6539365746
58	16861	113	5505.6539291108
58	16862	113.1	5505.6539223641
58	16904	113.2	5505.6539160931
58	16905	113.3	5505.6539105318
58	16906	113.4	5505.653905421
58	16927	113.5	5505.6539007548
58	16996	113.6	5505.653896572
58	17006	113.7	5505.6538927805
58	17007	113.8	5505.6538894162
58	17008	113.9	5505.6538862723
58	17013	114	5505.6538834998
58	17014	114.1	5505.6538809684
58	17093	114.2	5505.6538786692
58	17102	114.3	5505.6538766199
58	17103	114.4	5505.6538747252
58	17156	114.5	5505.6538730527
58	17166	114.6	5505.6538715079
58	17167	114.7	5505.6538701616
58	17230	114.8	5505.6538689511
58	17231	114.9	5505.6538678402
58	17232	115	5505.653866846
58	17233	115.1	5505.6538659462
58	17245	115.2	5505.6538651158
58	17246	115.3	5505.6538643739
58	17247	115.4	5505.653863691
58	17255	115.5	5505.6538630822
58	17282	115.6	5505.653862531
58	17283	115.7	5505.6538620375
58	17293	115.8	5505.6538615757
58	17356	115.9	5505.6538611674
58	17357	116	5505.6538608045
58	17358	116.1	5505.6538604731
58	17359	116.2	5505.6538601671
58	17360	116.3	5505.6538598936
58	17473	116.4	5505.6538596468
58	17500	116.5	5505.6538594255
58	17504	116.6	5505.6538592249
58	17505	116.7	5505.6538590389
58	17506	116.8	5505.6538588775
58	17516	116.9	5505.6538587311
58	17517	117	5505.6538585968
58	17519	117.1	5505.6538584787
58	17528	117.2	5505.6538583692
58	17561	117.3	5505.6538582677
58	17578	117.4	5505.6538157349
58	17582	117.5	5505.6536466512
58	17609	117.6	5505.6531952768
58	17672	117.7	5505.6523185653
58	17673	117.8	5505.6507525193
58	17674	117.9	5505.6481582758
58	17675	118	5505.6443145014
58	17676	118.1	5505.6389737838
58	17703	118.2	5505.6317999581
58	17758	118.3	5505.6225130249
58	17759	118.4	5505.6114829328
58	17760	118.5	5505.5983467049
58	17764	118.6	5505.5821633744
58	17774	118.7	5505.5634830573
58	17775	118.8	5505.5433048594
58	17776	118.9	5505.5197848698
58	17777	119	5505.4931016971
58	17778	119.1	5505.4635350602
58	17782	119.2	5505.4309764934
58	17790	119.3	5505.3956390221
58	17791	119.4	5505.3578886947
58	17792	119.5	5505.3201325633
58	17855	119.6	5505.2818704862
58	17856	119.7	5505.242546295
58	17857	119.8	5505.201696754
58	17858	119.9	5505.1600528798
58	17859	120	5505.1150943444
58	17868	120.1	5505.0678639241
58	17957	120.2	5505.0183115765
58	17958	120.3	5504.9652259836
58	17985	120.4	5504.9106584376
58	17986	120.5	5504.8521502056
58	18004	120.6	5504.7907329708
58	18005	120.7	5504.7272521931
58	18006	120.8	5504.660940363
58	18057	120.9	5504.5914886616
58	18058	121	5504.5181416783
58	18059	121.1	5504.4403880147
58	18072	121.2	5504.3609542289
58	18073	121.3	5504.2818687628
58	18077	121.4	5504.2046917846
58	18078	121.5	5504.1284261373
58	18079	121.6	5504.0547964858
58	18106	121.7	5503.9847329675
58	18169	121.8	5503.9143428297
58	18177	121.9	5503.8475276121
58	18178	122	5503.781160028
58	18179	122.1	5503.7174210357
58	18180	122.2	5503.6503342789
58	18207	122.3	5503.5806112486
58	18234	122.4	5503.5084857649
58	18235	122.5	5503.43446178
58	18236	122.6	5503.357593464
58	18240	122.7	5503.2763232152
58	18250	122.8	5503.1913661952
58	18251	122.9	5503.104390563
58	18260	123	5503.0135850785
58	18261	123.1	5502.9196942028
58	18324	123.2	5502.8218694095
58	18328	123.3	5502.7212632593
58	18332	123.4	5502.617787923
58	18403	123.5	5502.5135174951
58	18404	123.6	5502.413921884
58	18405	123.7	5502.3186307071
58	18406	123.8	5502.2281693036
58	18407	123.9	5502.141870949
58	18470	124	5502.0613207193
58	18527	124.1	5501.9842507292
58	18537	124.2	5501.9117389116
58	18538	124.3	5501.8436881475
58	18565	124.4	5501.8322094027
58	18575	124.5	5501.8244980508
58	18682	124.6	5501.8161856148
58	18683	124.7	5501.8072720949
58	18684	124.8	5501.7977574909
58	18809	124.9	5501.7876418028
58	18845	125	5501.8284249104
58	18854	125.1	5502.006659593
58	18855	125.2	5502.1943602044
58	18856	125.3	5502.3915267448
58	18860	125.4	5502.5981592141
58	18861	125.5	5502.9834298066
58	18877	125.6	5503.416529254
58	18878	125.7	5503.8668669109
58	18879	125.8	5504.3268814016
58	18906	125.9	5504.9006338364
58	18910	126	5505.5165408333
58	18911	126.1	5506.1516199482
58	18912	126.2	5506.8091047285
58	18913	126.3	5507.5003303613
58	18914	126.4	5508.2257638673
58	18915	126.5	5508.9757379309
58	18916	126.6	5509.7405404271
58	18917	126.7	5510.5229531889
58	19030	126.8	5511.3290152508
58	19107	126.9	5512.1609760517
58	19108	127	5513.008715011
58	19109	127.1	5513.8721093857
58	19110	127.2	5514.7526830236
58	19111	127.3	5515.651984273
58	19112	127.4	5516.5739436372
58	19113	127.5	5517.5100621457
58	19114	127.6	5518.4663799715
58	19177	127.7	5519.4432942461
58	19194	127.8	5520.4345285599
58	19231	127.9	5521.4407116232
58	19294	128	5522.4684750705
58	19295	128.1	5523.5198269281
58	19358	128.2	5524.5854881041
58	19359	128.3	5525.6737539941
58	19360	128.4	5526.7796114434
58	19361	128.5	5527.9079702982
58	19486	128.6	5529.0597289928
58	19496	128.7	5530.2291570459
58	19567	128.8	5531.4169361599
58	19633	128.9	5532.6182953502
58	19693	129	5533.8406319808
58	19694	129.1	5535.0816639864
58	19704	129.2	5536.343761609
58	19705	129.3	5537.6247086864
58	19762	129.4	5538.9251622307
58	19763	129.5	5540.2406204093
58	19782	129.6	5541.5636692551
58	19783	129.7	5542.8867283863
58	19827	129.8	5544.2160154366
58	19837	129.9	5545.53942808
58	19907	130	5546.8607720882
58	19908	130.1	5548.1848852283
58	19909	130.2	5549.5075203964
58	19910	130.3	5550.8345360837
58	19981	130.4	5552.1607849694
58	19982	130.5	5553.4835569678
58	19983	130.6	5554.8128988687
58	19984	130.7	5556.1323042811
58	20008	130.8	5557.4520216402
58	20009	130.9	5558.7749945378
58	20075	131	5560.1016967969
58	20076	131.1	5561.4299016987
58	20077	131.2	5562.7509163089
58	20078	131.3	5564.0801610247
58	20150	131.4	5565.4062771178
58	20151	131.5	5566.728917924
58	20152	131.6	5568.0535133662
58	20161	131.7	5569.3734068687
58	20226	131.8	5570.6968795426
58	20227	131.9	5572.0205060854
58	20236	132	5573.3422858768
58	20237	132.1	5574.6713858017
58	20238	132.2	5575.9912831019
58	20239	132.3	5577.3159248176
58	20355	132.4	5578.6467272383
58	20418	132.5	5579.9886407025
58	20481	132.6	5581.3323237401
58	20502	132.7	5582.6767718702
58	20512	132.8	5584.0257745017
58	20513	132.9	5585.3767491061
58	20576	133	5586.7212696102
58	20577	133.1	5588.0674023748
58	20578	133.2	5589.4196492773
58	20579	133.3	5590.769794805
58	20645	133.4	5592.1131591718
58	20699	133.5	5593.4576904826
58	20771	133.6	5594.7979285159
58	20794	133.7	5596.1407307748
58	20851	133.8	5597.4816218968
58	20852	133.9	5598.832151961
58	20862	134	5600.1759902999
58	20863	134.1	5601.5189913008
58	20864	134.2	5602.8673418045
58	20865	134.3	5604.214471141
58	20873	134.4	5605.5643762948
58	20880	134.5	5606.9046108188
58	20898	134.6	5608.2550311919
58	20901	134.7	5609.6052393954
58	20910	134.8	5610.9482416862
58	20911	134.9	5612.295666497
58	20912	135	5613.6431045288
58	20975	135.1	5614.9851418358
58	20976	135.2	5616.3282367436
58	21039	135.3	5617.6675938808
58	21040	135.4	5619.0138620492
58	21103	135.5	5620.3545829017
58	21124	135.6	5621.7029962563
58	21125	135.7	5623.0511750432
58	21126	135.8	5624.3913380607
58	21127	135.9	5625.7359730365
58	21128	136	5627.0772424906
58	21138	136.1	5628.4235810361
58	21139	136.2	5629.7690453058
58	21329	136.3	5631.1162875697
58	21330	136.4	5632.4603170805
58	21340	136.5	5633.8414075055
58	21363	136.6	5635.2256846572
58	21408	136.7	5636.6021618044
58	21471	136.8	5637.9769205344
58	21472	136.9	5639.3567414095
58	21591	137	5640.7405572691
58	21592	137.1	5642.1227070034
58	21593	137.2	5643.5013870652
58	21620	137.3	5644.8759939919
58	21621	137.4	5646.2621201332
58	21630	137.5	5647.6387773035
58	21633	137.6	5649.0202993015
58	21640	137.7	5650.3956313789
58	21650	137.8	5651.7736561639
58	21651	137.9	5653.1508573082
58	21669	138	5654.525675176
58	21670	138.1	5655.9101905548
58	21671	138.2	5657.2913813289
58	21672	138.3	5658.6740411728
58	21673	138.4	5660.060696022
58	21694	138.5	5661.4457319023
58	21695	138.6	5662.8226499665
58	21696	138.7	5664.209143581
58	21815	138.8	5665.5857349566
58	21816	138.9	5666.9644436627
58	21817	139	5668.3509689684
58	21880	139.1	5669.7324034571
58	21981	139.2	5671.117984923
58	21982	139.3	5672.4924457692
58	21983	139.4	5673.866739163
58	22006	139.5	5675.2456151202
58	22007	139.6	5676.6319939817
58	22008	139.7	5678.0113758513
58	22082	139.8	5679.3945446162
58	22083	139.9	5680.7797548696
58	22208	140	5682.1559168393
58	22218	140.1	5683.5326661019
58	22233	140.2	5684.9192298674
58	22234	140.3	5686.298411813
58	22243	140.4	5687.6863691476
58	22308	140.5	5689.0731731598
58	22309	140.6	5690.4608994829
58	22310	140.7	5691.8465245404
58	22319	140.8	5693.2220806484
58	22320	140.9	5694.6040730782
58	22339	141	5695.978184253
58	22340	141.1	5697.3605986027
58	22397	141.2	5698.7372425925
58	22398	141.3	5700.1211077189
58	22419	141.4	5701.496331478
58	22429	141.5	5702.8770350753
58	22430	141.6	5704.2538095721
58	22431	141.7	5705.6406554129
58	22432	141.8	5707.0219820736
58	22433	141.9	5708.4075236249
58	22434	142	5709.7871304961
58	22435	142.1	5711.1725136459
58	22444	142.2	5712.5483098992
58	22445	142.3	5713.9262443858
58	22462	142.4	5715.3099559903
58	22557	142.5	5716.6964229722
58	22558	142.6	5718.0784687387
58	22559	142.7	5719.4572195864
58	22616	142.8	5720.8358030987
58	22711	142.9	5722.222487122
58	22712	143	5723.6076294379
58	22713	143.1	5724.9873555057
58	22714	143.2	5726.3721509743
58	22773	143.3	5727.7570368571
58	22775	143.4	5729.1380566218
58	22789	143.5	5730.5216046878
58	22790	143.6	5731.9024078031
58	22903	143.7	5733.279277625
58	22912	143.8	5734.6555301663
58	22926	143.9	5736.033963181
58	22927	144	5737.4167925268
58	22928	144.1	5738.8031442967
58	22985	144.2	5740.1810545255
58	23007	144.3	5741.5686761204
58	23008	144.4	5742.9449229939
58	23009	144.5	5744.3255445775
58	23010	144.6	5745.7055371512
58	23027	144.7	5747.0889157675
58	23028	144.8	5748.4668971115
58	23081	144.9	5749.8473716148
58	23082	145	5751.2295223516
58	23083	145.1	5752.6134989721
58	23092	145.2	5753.9900082606
58	23138	145.3	5755.3720477181
58	23139	145.4	5756.7517721575
58	23140	145.5	5758.1399276471
58	23141	145.6	5759.5164914643
58	23142	145.7	5760.9005718382
58	23143	145.8	5762.2841352171
58	23150	145.9	5763.6621022336
58	23189	146	5765.0501706205
58	23190	146.1	5766.4384809502
58	23199	146.2	5767.8199292681
58	23206	146.3	5769.2032324976
58	23207	146.4	5770.5842291771
58	23258	146.5	5771.9623718038
58	23297	146.6	5773.3416726675
58	23298	146.7	5774.7300871378
58	23299	146.8	5776.1126400979
58	23300	146.9	5777.4999277526
58	23338	147	5778.8878264453
58	23339	147.1	5780.273101611
58	23386	147.2	5781.6596502845
58	23387	147.3	5783.0460076533
58	23488	147.4	5784.4246257037
58	23496	147.5	5785.8091396066
58	23502	147.6	5787.1878910351
58	23503	147.7	5788.573267246
58	23504	147.8	5789.9536762834
58	23561	147.9	5791.3384883048
58	23566	148	5792.7170080403
58	23567	148.1	5794.1018578968
58	23573	148.2	5795.4832880075
58	23606	148.3	5796.8653110695
58	23621	148.4	5798.2434075795
58	23622	148.5	5799.6292110432
58	23637	148.6	5801.0146040689
58	23638	148.7	5802.3917839389
58	23639	148.8	5803.777260774
58	23648	148.9	5805.158109767
58	23649	149	5806.546198019
58	23702	149.1	5807.9273572636
58	23703	149.2	5809.3096347407
58	23708	149.3	5810.6866398438
58	23709	149.4	5812.0683046953
58	23710	149.5	5813.4454147695
58	23712	149.6	5814.8224261979
58	23713	149.7	5816.2030032452
58	23714	149.8	5817.5791277131
58	23715	149.9	5818.9600231015
58	23716	150	5820.3406808304
58	23763	150.1	5821.7239056338
58	23814	150.2	5823.1108578951
58	23841	150.3	5824.496234455
58	23842	150.4	5825.8803251194
58	23881	150.5	5827.2622250676
58	23882	150.6	5828.6467613764
58	23883	150.7	5830.0248939257
58	23884	150.8	5831.4038342948
58	23885	150.9	5832.7864744525
58	23886	151	5834.1675469177
58	23929	151.1	5835.5560002728
58	23975	151.2	5836.932239683
58	23979	151.3	5838.3132264123
58	23980	151.4	5839.7017750149
58	23986	151.5	5841.0870884734
58	24031	151.6	5842.4707067573
58	24032	151.7	5843.8526421205
58	24033	151.8	5845.2176324997
58	24034	151.9	5846.5651193818
58	24043	152	5847.8865406054
58	24049	152.1	5849.1798845198
58	24075	152.2	5850.4462526612
58	24090	152.3	5851.6944337263
58	24091	152.4	5852.9286980631
58	24092	152.5	5854.1380364532
58	24099	152.6	5855.3181142045
58	24100	152.7	5856.4777998309
58	24101	152.8	5857.6231038564
58	24102	152.9	5858.7421863053
58	24117	153	5859.8516352476
58	24118	153.1	5860.94611102
58	24121	153.2	5862.0254755276
58	24123	153.3	5863.0945142914
58	24124	153.4	5864.1522472972
58	24125	153.5	5865.200459742
58	24126	153.6	5866.2442095789
58	24127	153.7	5867.2721836262
58	24128	153.8	5868.2978710354
58	24173	153.9	5869.3227769847
58	24175	154	5870.3401142213
58	24176	154.1	5871.3489466454
58	24177	154.2	5872.3495876607
58	24178	154.3	5873.3404563172
58	24179	154.4	5874.308258859
58	24180	154.5	5875.2549355512
58	24181	154.6	5876.1846747371
58	24182	154.7	5877.0873887536
58	24183	154.8	5877.9683561759
58	24212	154.9	5878.8270937896
58	24213	155	5879.6540104546
58	24214	155.1	5880.4700329203
58	24215	155.2	5881.2613096659
58	24216	155.3	5882.0312526074
58	24217	155.4	5882.7832308475
58	24256	155.5	5883.5135626425
58	24257	155.6	5884.2256333682
58	24258	155.7	5884.9070332195
58	24297	155.8	5885.5752621773
58	24313	155.9	5886.2258932191
58	24328	156	5886.8712243292
58	24329	156.1	5887.5162250582
58	24330	156.2	5888.1555017761
58	24331	156.3	5888.7961157305
58	24332	156.4	5889.437180546
58	24358	156.5	5890.0833098061
58	24359	156.6	5890.7450552853
58	24360	156.7	5891.4108808461
58	24366	156.8	5892.0828417689
58	24368	156.9	5892.7607664346
58	24384	157	5893.449951545
58	24385	157.1	5894.1411308393
58	24386	157.2	5894.8448507702
58	24387	157.3	5895.5436934967
58	24388	157.4	5896.2149894336
58	24391	157.5	5896.8619379474
58	24392	157.6	5897.4817640534
58	24393	157.7	5898.0726387321
58	24446	157.8	5898.6410978444
58	24485	157.9	5899.1788561845
58	24487	158	5899.7006177574
58	24488	158.1	5900.1974929097
58	24489	158.2	5900.6629351672
58	24490	158.3	5901.110469501
58	24491	158.4	5901.5337774247
58	24492	158.5	5901.9244859642
58	24493	158.6	5902.3039043553
58	24494	158.7	5902.6551397176
58	24553	158.8	5902.9828739935
58	24559	158.9	5903.3366005543
58	24560	159	5903.7163194
58	24561	159.1	5904.1220305305
58	24562	159.2	5904.5537339459
58	24563	159.3	5905.0114296462
58	24564	159.4	5905.4951176314
58	24565	159.5	5906.0047979014
58	24566	159.6	5906.5404704562
58	24581	159.7	5907.102135296
58	24588	159.8	5907.6791018333
58	24589	159.9	5908.2723723794
58	24590	160	5908.8913522296
58	24591	160.1	5909.5337382372
58	24592	160.2	5910.1800242711
58	24593	160.3	5910.7672528993
58	24614	160.4	5911.3759352105
58	24615	160.5	5911.9973678122
58	24616	160.6	5912.4375967511
58	24626	160.7	5912.83320913
58	24627	160.8	5913.2418552767
58	24628	160.9	5913.435867016
58	24629	161	5913.5551786194
58	24630	161.1	5913.6780361755
58	24631	161.2	5913.760437114
58	24632	161.3	5913.7616987916
58	24635	161.4	5913.7629802823
58	24636	161.5	5913.7642958733
58	24681	161.6	5913.76564602
58	24696	161.7	5913.7670180457
58	24697	161.8	5913.7684151594
58	24698	161.9	5913.7698436686
58	24699	162	5913.7713006847
58	24700	162.1	5913.7727852736
58	24701	162.2	5913.774297107
58	24702	162.3	5913.7758316639
58	24703	162.4	5913.77738997
58	24704	162.5	5913.7789786567
58	24755	162.6	5913.7805861535
58	24757	162.7	5913.7822252952
58	24802	162.8	5913.7838932267
58	24803	162.9	5913.7855836048
58	24804	163	5913.7873032696
58	24849	163.1	5913.7890418478
58	24850	163.2	5913.7908056301
58	24851	163.3	5913.7925945181
58	24866	163.4	5913.7944129532
58	24867	163.5	5913.7962600932
58	24882	163.6	5913.7981411461
58	24927	163.7	5913.8000468661
58	24934	163.8	5913.8019775565
58	24935	163.9	5913.8039321951
58	24936	164	5913.8058934093
58	24943	164.1	5913.8078499196
58	24944	164.2	5913.8098196008
58	24989	164.3	5913.8117881143
58	24991	164.4	5913.8137441795
58	24992	164.5	5913.8157051781
58	25051	164.6	5913.8176713698
58	25058	164.7	5913.8196280748
58	25103	164.8	5913.8215887674
58	25104	164.9	5913.8235607879
58	25105	165	5913.8255232002
58	25106	165.1	5913.8274949183
58	25151	165.2	5913.8294535524
58	25158	165.3	5913.62489594
58	25203	165.4	5913.3413411581
58	25204	165.5	5913.0590026638
58	25212	165.6	5912.7783022074
58	25213	165.7	5912.4953889433
58	25220	165.8	5912.2140157867
58	25221	165.9	5911.9329232865
58	25222	166	5911.6515457356
58	25223	166.1	5911.3684804092
58	25230	166.2	5911.0895323975
58	25231	166.3	5910.809598541
58	25282	166.4	5910.529951783
58	25291	166.5	5910.2497802956
58	25336	166.6	5909.9707471868
58	25337	166.7	5909.6895946963
58	25338	166.8	5909.409042748
58	25339	166.9	5909.1291543492
58	25340	167	5908.8473239199
58	25355	167.1	5908.5666538043
58	25400	167.2	5908.2850409633
58	25401	167.3	5908.0003513206
58	25408	167.4	5907.7150242513
58	25423	167.5	5907.4318908119
58	25430	167.6	5907.1475002634
58	25431	167.7	5906.864016457
58	25476	167.8	5906.5802867057
58	25477	167.9	5906.2959866686
58	25478	168	5906.0080285464
58	25480	168.1	5905.7207247946
58	25487	168.2	5905.4318058301
58	25488	168.3	5905.1426179238
58	25533	168.4	5904.7781493214
58	25535	168.5	5904.4061570328
58	25536	168.6	5904.0342775183
58	25537	168.7	5903.6665639665
58	25544	168.8	5903.3020058242
58	25545	168.9	5902.9363224301
58	25546	169	5902.5722502062
