version 2
run General-0-20170416-02:06:35-14392
attr configname General
attr datetime 20170416-02:06:35
attr experiment General
attr inifile omnetpp.ini
attr iterationvars ""
attr iterationvars2 $repetition=0
attr measurement ""
attr network DVCastScenario
attr processid 14392
attr repetition 0
attr replication #0
attr resultdir results
attr runnumber 0
attr seedset 0
param **.coreDebug false
param **.debug false
param *.**.nic.mac1609_4.bitrate 18Mbps
param *.**.nic.mac1609_4.txPower 20mW
param *.**.nic.mac1609_4.useServiceChannel false
param *.**.nic.phy80211p.analogueModels "xmldoc(\"config.xml\")"
param *.**.nic.phy80211p.decider "xmldoc(\"config.xml\")"
param *.**.nic.phy80211p.sensitivity -89dBm
param *.**.nic.phy80211p.thermalNoise -110dBm
param *.**.nic.phy80211p.usePropagationDelay true
param *.**.nic.phy80211p.useThermalNoise true
param *.annotations.draw false
param *.connectionManager.alpha 2.0
param *.connectionManager.carrierFrequency "5.890e9 Hz"
param *.connectionManager.pMax 20mW
param *.connectionManager.sat -89dBm
param *.connectionManager.sendDirect true
param *.manager.autoShutdown true
param *.manager.host "\"localhost\""
param *.manager.launchConfig "xmldoc(\"uah.launchd.xml\")"
param *.manager.margin 25
param *.manager.moduleDisplayString "\"\""
param *.manager.moduleName "\"node\""
param *.manager.moduleType "\"org.car2x.veins.nodes.Car\""
param *.manager.port 9999
param *.manager.updateInterval 0.1s
param *.node[*0].veinsmobility.accidentCount 1
param *.node[*0].veinsmobility.accidentDuration 30s
param *.node[*0].veinsmobility.accidentStart 75s
param *.node[*].appl.beaconInterval 1s
param *.node[*].appl.beaconPriority 3
param *.node[*].appl.dataOnSch false
param *.node[*].appl.dataPriority 2
param *.node[*].appl.debug false
param *.node[*].appl.headerLength "256 bit"
param *.node[*].appl.maxOffset 0.005s
param *.node[*].appl.sendBeacons false
param *.node[*].appl.sendData true
param *.node[*].applType "\"DVCastLayer\""
param *.node[*].mobilityType "\"TraCIMobility\""
param *.node[*].mobilityType.debug true
param *.node[*].veinsmobility.x 0
param *.node[*].veinsmobility.y 0
param *.node[*].veinsmobility.z 1.895
param *.node[*].veinsmobilityType "\"org.car2x.veins.modules.mobility.traci.TraCIMobility\""
param *.node[*].veinsmobilityType.debug true
param *.playgroundSizeX 20000m
param *.playgroundSizeY 20000m
param *.playgroundSizeZ 5000m
param *.world.use2D false
param *.world.useTorus false

vector 2  DVCastScenario.node[0].veinsmobility  posx  ETV
vector 3  DVCastScenario.node[0].veinsmobility  posy  ETV
vector 4  DVCastScenario.node[0].veinsmobility  speed  ETV
vector 5  DVCastScenario.node[0].veinsmobility  acceleration  ETV
vector 6  DVCastScenario.node[0].veinsmobility  co2emission  ETV
vector 9  DVCastScenario.node[1].veinsmobility  posx  ETV
vector 10  DVCastScenario.node[1].veinsmobility  posy  ETV
vector 11  DVCastScenario.node[1].veinsmobility  speed  ETV
vector 12  DVCastScenario.node[1].veinsmobility  acceleration  ETV
vector 13  DVCastScenario.node[1].veinsmobility  co2emission  ETV
vector 16  DVCastScenario.node[2].veinsmobility  posx  ETV
vector 17  DVCastScenario.node[2].veinsmobility  posy  ETV
vector 18  DVCastScenario.node[2].veinsmobility  speed  ETV
vector 19  DVCastScenario.node[2].veinsmobility  acceleration  ETV
vector 20  DVCastScenario.node[2].veinsmobility  co2emission  ETV
vector 23  DVCastScenario.node[3].veinsmobility  posx  ETV
vector 24  DVCastScenario.node[3].veinsmobility  posy  ETV
vector 25  DVCastScenario.node[3].veinsmobility  speed  ETV
vector 26  DVCastScenario.node[3].veinsmobility  acceleration  ETV
vector 27  DVCastScenario.node[3].veinsmobility  co2emission  ETV
vector 30  DVCastScenario.node[4].veinsmobility  posx  ETV
vector 31  DVCastScenario.node[4].veinsmobility  posy  ETV
vector 32  DVCastScenario.node[4].veinsmobility  speed  ETV
vector 33  DVCastScenario.node[4].veinsmobility  acceleration  ETV
vector 34  DVCastScenario.node[4].veinsmobility  co2emission  ETV
vector 37  DVCastScenario.node[5].veinsmobility  posx  ETV
vector 38  DVCastScenario.node[5].veinsmobility  posy  ETV
vector 39  DVCastScenario.node[5].veinsmobility  speed  ETV
vector 40  DVCastScenario.node[5].veinsmobility  acceleration  ETV
vector 41  DVCastScenario.node[5].veinsmobility  co2emission  ETV
vector 44  DVCastScenario.node[6].veinsmobility  posx  ETV
vector 45  DVCastScenario.node[6].veinsmobility  posy  ETV
vector 46  DVCastScenario.node[6].veinsmobility  speed  ETV
vector 47  DVCastScenario.node[6].veinsmobility  acceleration  ETV
vector 48  DVCastScenario.node[6].veinsmobility  co2emission  ETV
vector 51  DVCastScenario.node[7].veinsmobility  posx  ETV
vector 52  DVCastScenario.node[7].veinsmobility  posy  ETV
vector 53  DVCastScenario.node[7].veinsmobility  speed  ETV
vector 54  DVCastScenario.node[7].veinsmobility  acceleration  ETV
vector 55  DVCastScenario.node[7].veinsmobility  co2emission  ETV
vector 58  DVCastScenario.node[8].veinsmobility  posx  ETV
vector 59  DVCastScenario.node[8].veinsmobility  posy  ETV
vector 60  DVCastScenario.node[8].veinsmobility  speed  ETV
vector 61  DVCastScenario.node[8].veinsmobility  acceleration  ETV
vector 62  DVCastScenario.node[8].veinsmobility  co2emission  ETV
vector 65  DVCastScenario.node[9].veinsmobility  posx  ETV
vector 66  DVCastScenario.node[9].veinsmobility  posy  ETV
vector 67  DVCastScenario.node[9].veinsmobility  speed  ETV
vector 68  DVCastScenario.node[9].veinsmobility  acceleration  ETV
vector 69  DVCastScenario.node[9].veinsmobility  co2emission  ETV
vector 72  DVCastScenario.node[10].veinsmobility  posx  ETV
vector 73  DVCastScenario.node[10].veinsmobility  posy  ETV
vector 74  DVCastScenario.node[10].veinsmobility  speed  ETV
vector 75  DVCastScenario.node[10].veinsmobility  acceleration  ETV
vector 76  DVCastScenario.node[10].veinsmobility  co2emission  ETV
vector 79  DVCastScenario.node[11].veinsmobility  posx  ETV
vector 80  DVCastScenario.node[11].veinsmobility  posy  ETV
vector 81  DVCastScenario.node[11].veinsmobility  speed  ETV
vector 82  DVCastScenario.node[11].veinsmobility  acceleration  ETV
vector 83  DVCastScenario.node[11].veinsmobility  co2emission  ETV
vector 86  DVCastScenario.node[12].veinsmobility  posx  ETV
vector 87  DVCastScenario.node[12].veinsmobility  posy  ETV
vector 88  DVCastScenario.node[12].veinsmobility  speed  ETV
vector 89  DVCastScenario.node[12].veinsmobility  acceleration  ETV
vector 90  DVCastScenario.node[12].veinsmobility  co2emission  ETV
vector 93  DVCastScenario.node[13].veinsmobility  posx  ETV
vector 94  DVCastScenario.node[13].veinsmobility  posy  ETV
vector 95  DVCastScenario.node[13].veinsmobility  speed  ETV
vector 96  DVCastScenario.node[13].veinsmobility  acceleration  ETV
vector 97  DVCastScenario.node[13].veinsmobility  co2emission  ETV
vector 100  DVCastScenario.node[14].veinsmobility  posx  ETV
vector 101  DVCastScenario.node[14].veinsmobility  posy  ETV
vector 102  DVCastScenario.node[14].veinsmobility  speed  ETV
vector 103  DVCastScenario.node[14].veinsmobility  acceleration  ETV
vector 104  DVCastScenario.node[14].veinsmobility  co2emission  ETV
vector 107  DVCastScenario.node[15].veinsmobility  posx  ETV
vector 108  DVCastScenario.node[15].veinsmobility  posy  ETV
vector 109  DVCastScenario.node[15].veinsmobility  speed  ETV
vector 110  DVCastScenario.node[15].veinsmobility  acceleration  ETV
vector 111  DVCastScenario.node[15].veinsmobility  co2emission  ETV
vector 114  DVCastScenario.node[16].veinsmobility  posx  ETV
vector 115  DVCastScenario.node[16].veinsmobility  posy  ETV
vector 116  DVCastScenario.node[16].veinsmobility  speed  ETV
vector 117  DVCastScenario.node[16].veinsmobility  acceleration  ETV
vector 118  DVCastScenario.node[16].veinsmobility  co2emission  ETV
vector 121  DVCastScenario.node[17].veinsmobility  posx  ETV
vector 122  DVCastScenario.node[17].veinsmobility  posy  ETV
vector 123  DVCastScenario.node[17].veinsmobility  speed  ETV
vector 124  DVCastScenario.node[17].veinsmobility  acceleration  ETV
vector 125  DVCastScenario.node[17].veinsmobility  co2emission  ETV
vector 128  DVCastScenario.node[18].veinsmobility  posx  ETV
vector 129  DVCastScenario.node[18].veinsmobility  posy  ETV
vector 130  DVCastScenario.node[18].veinsmobility  speed  ETV
vector 131  DVCastScenario.node[18].veinsmobility  acceleration  ETV
vector 132  DVCastScenario.node[18].veinsmobility  co2emission  ETV
vector 135  DVCastScenario.node[19].veinsmobility  posx  ETV
vector 136  DVCastScenario.node[19].veinsmobility  posy  ETV
vector 137  DVCastScenario.node[19].veinsmobility  speed  ETV
vector 138  DVCastScenario.node[19].veinsmobility  acceleration  ETV
vector 139  DVCastScenario.node[19].veinsmobility  co2emission  ETV
vector 142  DVCastScenario.node[20].veinsmobility  posx  ETV
vector 143  DVCastScenario.node[20].veinsmobility  posy  ETV
vector 144  DVCastScenario.node[20].veinsmobility  speed  ETV
vector 145  DVCastScenario.node[20].veinsmobility  acceleration  ETV
vector 146  DVCastScenario.node[20].veinsmobility  co2emission  ETV
vector 149  DVCastScenario.node[21].veinsmobility  posx  ETV
vector 150  DVCastScenario.node[21].veinsmobility  posy  ETV
vector 151  DVCastScenario.node[21].veinsmobility  speed  ETV
vector 152  DVCastScenario.node[21].veinsmobility  acceleration  ETV
vector 153  DVCastScenario.node[21].veinsmobility  co2emission  ETV
vector 156  DVCastScenario.node[22].veinsmobility  posx  ETV
vector 157  DVCastScenario.node[22].veinsmobility  posy  ETV
vector 158  DVCastScenario.node[22].veinsmobility  speed  ETV
vector 159  DVCastScenario.node[22].veinsmobility  acceleration  ETV
vector 160  DVCastScenario.node[22].veinsmobility  co2emission  ETV
vector 163  DVCastScenario.node[23].veinsmobility  posx  ETV
vector 164  DVCastScenario.node[23].veinsmobility  posy  ETV
vector 165  DVCastScenario.node[23].veinsmobility  speed  ETV
vector 166  DVCastScenario.node[23].veinsmobility  acceleration  ETV
vector 167  DVCastScenario.node[23].veinsmobility  co2emission  ETV
vector 170  DVCastScenario.node[24].veinsmobility  posx  ETV
vector 171  DVCastScenario.node[24].veinsmobility  posy  ETV
vector 172  DVCastScenario.node[24].veinsmobility  speed  ETV
vector 173  DVCastScenario.node[24].veinsmobility  acceleration  ETV
vector 174  DVCastScenario.node[24].veinsmobility  co2emission  ETV
vector 177  DVCastScenario.node[25].veinsmobility  posx  ETV
vector 178  DVCastScenario.node[25].veinsmobility  posy  ETV
vector 179  DVCastScenario.node[25].veinsmobility  speed  ETV
vector 180  DVCastScenario.node[25].veinsmobility  acceleration  ETV
vector 181  DVCastScenario.node[25].veinsmobility  co2emission  ETV
vector 184  DVCastScenario.node[26].veinsmobility  posx  ETV
vector 185  DVCastScenario.node[26].veinsmobility  posy  ETV
vector 186  DVCastScenario.node[26].veinsmobility  speed  ETV
vector 187  DVCastScenario.node[26].veinsmobility  acceleration  ETV
vector 188  DVCastScenario.node[26].veinsmobility  co2emission  ETV
vector 191  DVCastScenario.node[27].veinsmobility  posx  ETV
vector 192  DVCastScenario.node[27].veinsmobility  posy  ETV
vector 193  DVCastScenario.node[27].veinsmobility  speed  ETV
vector 194  DVCastScenario.node[27].veinsmobility  acceleration  ETV
vector 195  DVCastScenario.node[27].veinsmobility  co2emission  ETV
vector 198  DVCastScenario.node[28].veinsmobility  posx  ETV
vector 199  DVCastScenario.node[28].veinsmobility  posy  ETV
vector 200  DVCastScenario.node[28].veinsmobility  speed  ETV
vector 201  DVCastScenario.node[28].veinsmobility  acceleration  ETV
vector 202  DVCastScenario.node[28].veinsmobility  co2emission  ETV
vector 205  DVCastScenario.node[29].veinsmobility  posx  ETV
vector 206  DVCastScenario.node[29].veinsmobility  posy  ETV
vector 207  DVCastScenario.node[29].veinsmobility  speed  ETV
vector 208  DVCastScenario.node[29].veinsmobility  acceleration  ETV
vector 209  DVCastScenario.node[29].veinsmobility  co2emission  ETV
vector 212  DVCastScenario.node[30].veinsmobility  posx  ETV
vector 213  DVCastScenario.node[30].veinsmobility  posy  ETV
vector 214  DVCastScenario.node[30].veinsmobility  speed  ETV
vector 215  DVCastScenario.node[30].veinsmobility  acceleration  ETV
vector 216  DVCastScenario.node[30].veinsmobility  co2emission  ETV
vector 219  DVCastScenario.node[31].veinsmobility  posx  ETV
vector 220  DVCastScenario.node[31].veinsmobility  posy  ETV
vector 221  DVCastScenario.node[31].veinsmobility  speed  ETV
vector 222  DVCastScenario.node[31].veinsmobility  acceleration  ETV
vector 223  DVCastScenario.node[31].veinsmobility  co2emission  ETV
vector 226  DVCastScenario.node[32].veinsmobility  posx  ETV
vector 227  DVCastScenario.node[32].veinsmobility  posy  ETV
vector 228  DVCastScenario.node[32].veinsmobility  speed  ETV
vector 229  DVCastScenario.node[32].veinsmobility  acceleration  ETV
vector 230  DVCastScenario.node[32].veinsmobility  co2emission  ETV
vector 233  DVCastScenario.node[33].veinsmobility  posx  ETV
vector 234  DVCastScenario.node[33].veinsmobility  posy  ETV
vector 235  DVCastScenario.node[33].veinsmobility  speed  ETV
vector 236  DVCastScenario.node[33].veinsmobility  acceleration  ETV
vector 237  DVCastScenario.node[33].veinsmobility  co2emission  ETV
vector 240  DVCastScenario.node[34].veinsmobility  posx  ETV
vector 241  DVCastScenario.node[34].veinsmobility  posy  ETV
vector 242  DVCastScenario.node[34].veinsmobility  speed  ETV
vector 243  DVCastScenario.node[34].veinsmobility  acceleration  ETV
vector 244  DVCastScenario.node[34].veinsmobility  co2emission  ETV
vector 247  DVCastScenario.node[35].veinsmobility  posx  ETV
vector 248  DVCastScenario.node[35].veinsmobility  posy  ETV
vector 249  DVCastScenario.node[35].veinsmobility  speed  ETV
vector 250  DVCastScenario.node[35].veinsmobility  acceleration  ETV
vector 251  DVCastScenario.node[35].veinsmobility  co2emission  ETV
vector 254  DVCastScenario.node[36].veinsmobility  posx  ETV
vector 255  DVCastScenario.node[36].veinsmobility  posy  ETV
vector 256  DVCastScenario.node[36].veinsmobility  speed  ETV
vector 257  DVCastScenario.node[36].veinsmobility  acceleration  ETV
vector 258  DVCastScenario.node[36].veinsmobility  co2emission  ETV
vector 261  DVCastScenario.node[37].veinsmobility  posx  ETV
vector 262  DVCastScenario.node[37].veinsmobility  posy  ETV
vector 263  DVCastScenario.node[37].veinsmobility  speed  ETV
vector 264  DVCastScenario.node[37].veinsmobility  acceleration  ETV
vector 265  DVCastScenario.node[37].veinsmobility  co2emission  ETV
vector 268  DVCastScenario.node[38].veinsmobility  posx  ETV
vector 269  DVCastScenario.node[38].veinsmobility  posy  ETV
vector 270  DVCastScenario.node[38].veinsmobility  speed  ETV
vector 271  DVCastScenario.node[38].veinsmobility  acceleration  ETV
vector 272  DVCastScenario.node[38].veinsmobility  co2emission  ETV
vector 275  DVCastScenario.node[39].veinsmobility  posx  ETV
vector 276  DVCastScenario.node[39].veinsmobility  posy  ETV
vector 277  DVCastScenario.node[39].veinsmobility  speed  ETV
vector 278  DVCastScenario.node[39].veinsmobility  acceleration  ETV
vector 279  DVCastScenario.node[39].veinsmobility  co2emission  ETV
vector 282  DVCastScenario.node[40].veinsmobility  posx  ETV
vector 283  DVCastScenario.node[40].veinsmobility  posy  ETV
vector 284  DVCastScenario.node[40].veinsmobility  speed  ETV
vector 285  DVCastScenario.node[40].veinsmobility  acceleration  ETV
vector 286  DVCastScenario.node[40].veinsmobility  co2emission  ETV
vector 289  DVCastScenario.node[41].veinsmobility  posx  ETV
vector 290  DVCastScenario.node[41].veinsmobility  posy  ETV
vector 291  DVCastScenario.node[41].veinsmobility  speed  ETV
vector 292  DVCastScenario.node[41].veinsmobility  acceleration  ETV
vector 293  DVCastScenario.node[41].veinsmobility  co2emission  ETV
vector 296  DVCastScenario.node[42].veinsmobility  posx  ETV
vector 297  DVCastScenario.node[42].veinsmobility  posy  ETV
vector 298  DVCastScenario.node[42].veinsmobility  speed  ETV
vector 299  DVCastScenario.node[42].veinsmobility  acceleration  ETV
vector 300  DVCastScenario.node[42].veinsmobility  co2emission  ETV
vector 303  DVCastScenario.node[43].veinsmobility  posx  ETV
vector 304  DVCastScenario.node[43].veinsmobility  posy  ETV
vector 305  DVCastScenario.node[43].veinsmobility  speed  ETV
vector 306  DVCastScenario.node[43].veinsmobility  acceleration  ETV
vector 307  DVCastScenario.node[43].veinsmobility  co2emission  ETV
vector 310  DVCastScenario.node[44].veinsmobility  posx  ETV
vector 311  DVCastScenario.node[44].veinsmobility  posy  ETV
vector 312  DVCastScenario.node[44].veinsmobility  speed  ETV
vector 313  DVCastScenario.node[44].veinsmobility  acceleration  ETV
vector 314  DVCastScenario.node[44].veinsmobility  co2emission  ETV
vector 317  DVCastScenario.node[45].veinsmobility  posx  ETV
vector 318  DVCastScenario.node[45].veinsmobility  posy  ETV
vector 319  DVCastScenario.node[45].veinsmobility  speed  ETV
vector 320  DVCastScenario.node[45].veinsmobility  acceleration  ETV
vector 321  DVCastScenario.node[45].veinsmobility  co2emission  ETV
vector 324  DVCastScenario.node[46].veinsmobility  posx  ETV
vector 325  DVCastScenario.node[46].veinsmobility  posy  ETV
vector 326  DVCastScenario.node[46].veinsmobility  speed  ETV
vector 327  DVCastScenario.node[46].veinsmobility  acceleration  ETV
vector 328  DVCastScenario.node[46].veinsmobility  co2emission  ETV
vector 331  DVCastScenario.node[47].veinsmobility  posx  ETV
vector 332  DVCastScenario.node[47].veinsmobility  posy  ETV
vector 333  DVCastScenario.node[47].veinsmobility  speed  ETV
vector 334  DVCastScenario.node[47].veinsmobility  acceleration  ETV
vector 335  DVCastScenario.node[47].veinsmobility  co2emission  ETV
vector 338  DVCastScenario.node[48].veinsmobility  posx  ETV
vector 339  DVCastScenario.node[48].veinsmobility  posy  ETV
vector 345  DVCastScenario.node[49].veinsmobility  posx  ETV
vector 346  DVCastScenario.node[49].veinsmobility  posy  ETV
vector 340  DVCastScenario.node[48].veinsmobility  speed  ETV
vector 341  DVCastScenario.node[48].veinsmobility  acceleration  ETV
vector 342  DVCastScenario.node[48].veinsmobility  co2emission  ETV
vector 347  DVCastScenario.node[49].veinsmobility  speed  ETV
vector 348  DVCastScenario.node[49].veinsmobility  acceleration  ETV
vector 349  DVCastScenario.node[49].veinsmobility  co2emission  ETV
vector 352  DVCastScenario.node[50].veinsmobility  posx  ETV
vector 353  DVCastScenario.node[50].veinsmobility  posy  ETV
vector 354  DVCastScenario.node[50].veinsmobility  speed  ETV
vector 355  DVCastScenario.node[50].veinsmobility  acceleration  ETV
vector 356  DVCastScenario.node[50].veinsmobility  co2emission  ETV
vector 359  DVCastScenario.node[51].veinsmobility  posx  ETV
vector 360  DVCastScenario.node[51].veinsmobility  posy  ETV
vector 361  DVCastScenario.node[51].veinsmobility  speed  ETV
vector 362  DVCastScenario.node[51].veinsmobility  acceleration  ETV
vector 363  DVCastScenario.node[51].veinsmobility  co2emission  ETV
vector 366  DVCastScenario.node[52].veinsmobility  posx  ETV
vector 367  DVCastScenario.node[52].veinsmobility  posy  ETV
vector 368  DVCastScenario.node[52].veinsmobility  speed  ETV
vector 369  DVCastScenario.node[52].veinsmobility  acceleration  ETV
vector 370  DVCastScenario.node[52].veinsmobility  co2emission  ETV
vector 373  DVCastScenario.node[53].veinsmobility  posx  ETV
vector 374  DVCastScenario.node[53].veinsmobility  posy  ETV
vector 375  DVCastScenario.node[53].veinsmobility  speed  ETV
vector 376  DVCastScenario.node[53].veinsmobility  acceleration  ETV
vector 377  DVCastScenario.node[53].veinsmobility  co2emission  ETV
vector 380  DVCastScenario.node[54].veinsmobility  posx  ETV
vector 381  DVCastScenario.node[54].veinsmobility  posy  ETV
vector 382  DVCastScenario.node[54].veinsmobility  speed  ETV
vector 383  DVCastScenario.node[54].veinsmobility  acceleration  ETV
vector 384  DVCastScenario.node[54].veinsmobility  co2emission  ETV
vector 387  DVCastScenario.node[55].veinsmobility  posx  ETV
vector 388  DVCastScenario.node[55].veinsmobility  posy  ETV
vector 389  DVCastScenario.node[55].veinsmobility  speed  ETV
vector 390  DVCastScenario.node[55].veinsmobility  acceleration  ETV
vector 391  DVCastScenario.node[55].veinsmobility  co2emission  ETV
vector 394  DVCastScenario.node[56].veinsmobility  posx  ETV
vector 395  DVCastScenario.node[56].veinsmobility  posy  ETV
vector 396  DVCastScenario.node[56].veinsmobility  speed  ETV
vector 397  DVCastScenario.node[56].veinsmobility  acceleration  ETV
vector 398  DVCastScenario.node[56].veinsmobility  co2emission  ETV
vector 401  DVCastScenario.node[57].veinsmobility  posx  ETV
vector 402  DVCastScenario.node[57].veinsmobility  posy  ETV
vector 403  DVCastScenario.node[57].veinsmobility  speed  ETV
vector 404  DVCastScenario.node[57].veinsmobility  acceleration  ETV
vector 405  DVCastScenario.node[57].veinsmobility  co2emission  ETV
vector 408  DVCastScenario.node[58].veinsmobility  posx  ETV
vector 409  DVCastScenario.node[58].veinsmobility  posy  ETV
vector 410  DVCastScenario.node[58].veinsmobility  speed  ETV
vector 411  DVCastScenario.node[58].veinsmobility  acceleration  ETV
vector 412  DVCastScenario.node[58].veinsmobility  co2emission  ETV
vector 415  DVCastScenario.node[59].veinsmobility  posx  ETV
vector 416  DVCastScenario.node[59].veinsmobility  posy  ETV
vector 417  DVCastScenario.node[59].veinsmobility  speed  ETV
vector 418  DVCastScenario.node[59].veinsmobility  acceleration  ETV
vector 419  DVCastScenario.node[59].veinsmobility  co2emission  ETV
vector 422  DVCastScenario.node[60].veinsmobility  posx  ETV
vector 423  DVCastScenario.node[60].veinsmobility  posy  ETV
vector 424  DVCastScenario.node[60].veinsmobility  speed  ETV
vector 425  DVCastScenario.node[60].veinsmobility  acceleration  ETV
vector 426  DVCastScenario.node[60].veinsmobility  co2emission  ETV
vector 429  DVCastScenario.node[61].veinsmobility  posx  ETV
vector 430  DVCastScenario.node[61].veinsmobility  posy  ETV
vector 431  DVCastScenario.node[61].veinsmobility  speed  ETV
vector 432  DVCastScenario.node[61].veinsmobility  acceleration  ETV
vector 433  DVCastScenario.node[61].veinsmobility  co2emission  ETV
vector 436  DVCastScenario.node[62].veinsmobility  posx  ETV
vector 437  DVCastScenario.node[62].veinsmobility  posy  ETV
vector 438  DVCastScenario.node[62].veinsmobility  speed  ETV
vector 439  DVCastScenario.node[62].veinsmobility  acceleration  ETV
vector 440  DVCastScenario.node[62].veinsmobility  co2emission  ETV
vector 443  DVCastScenario.node[63].veinsmobility  posx  ETV
vector 444  DVCastScenario.node[63].veinsmobility  posy  ETV
vector 445  DVCastScenario.node[63].veinsmobility  speed  ETV
vector 446  DVCastScenario.node[63].veinsmobility  acceleration  ETV
vector 447  DVCastScenario.node[63].veinsmobility  co2emission  ETV
vector 450  DVCastScenario.node[64].veinsmobility  posx  ETV
vector 451  DVCastScenario.node[64].veinsmobility  posy  ETV
vector 452  DVCastScenario.node[64].veinsmobility  speed  ETV
vector 453  DVCastScenario.node[64].veinsmobility  acceleration  ETV
vector 454  DVCastScenario.node[64].veinsmobility  co2emission  ETV
vector 457  DVCastScenario.node[65].veinsmobility  posx  ETV
vector 458  DVCastScenario.node[65].veinsmobility  posy  ETV
vector 459  DVCastScenario.node[65].veinsmobility  speed  ETV
vector 460  DVCastScenario.node[65].veinsmobility  acceleration  ETV
vector 461  DVCastScenario.node[65].veinsmobility  co2emission  ETV
vector 464  DVCastScenario.node[66].veinsmobility  posx  ETV
vector 465  DVCastScenario.node[66].veinsmobility  posy  ETV
vector 466  DVCastScenario.node[66].veinsmobility  speed  ETV
vector 467  DVCastScenario.node[66].veinsmobility  acceleration  ETV
vector 468  DVCastScenario.node[66].veinsmobility  co2emission  ETV
vector 471  DVCastScenario.node[67].veinsmobility  posx  ETV
vector 472  DVCastScenario.node[67].veinsmobility  posy  ETV
vector 473  DVCastScenario.node[67].veinsmobility  speed  ETV
vector 474  DVCastScenario.node[67].veinsmobility  acceleration  ETV
vector 475  DVCastScenario.node[67].veinsmobility  co2emission  ETV
vector 478  DVCastScenario.node[68].veinsmobility  posx  ETV
vector 479  DVCastScenario.node[68].veinsmobility  posy  ETV
vector 480  DVCastScenario.node[68].veinsmobility  speed  ETV
vector 481  DVCastScenario.node[68].veinsmobility  acceleration  ETV
vector 482  DVCastScenario.node[68].veinsmobility  co2emission  ETV
vector 485  DVCastScenario.node[69].veinsmobility  posx  ETV
vector 486  DVCastScenario.node[69].veinsmobility  posy  ETV
vector 487  DVCastScenario.node[69].veinsmobility  speed  ETV
vector 488  DVCastScenario.node[69].veinsmobility  acceleration  ETV
vector 489  DVCastScenario.node[69].veinsmobility  co2emission  ETV
vector 492  DVCastScenario.node[70].veinsmobility  posx  ETV
vector 493  DVCastScenario.node[70].veinsmobility  posy  ETV
vector 494  DVCastScenario.node[70].veinsmobility  speed  ETV
vector 495  DVCastScenario.node[70].veinsmobility  acceleration  ETV
vector 496  DVCastScenario.node[70].veinsmobility  co2emission  ETV
vector 499  DVCastScenario.node[71].veinsmobility  posx  ETV
vector 500  DVCastScenario.node[71].veinsmobility  posy  ETV
vector 501  DVCastScenario.node[71].veinsmobility  speed  ETV
vector 502  DVCastScenario.node[71].veinsmobility  acceleration  ETV
vector 503  DVCastScenario.node[71].veinsmobility  co2emission  ETV
vector 506  DVCastScenario.node[72].veinsmobility  posx  ETV
vector 507  DVCastScenario.node[72].veinsmobility  posy  ETV
vector 508  DVCastScenario.node[72].veinsmobility  speed  ETV
vector 509  DVCastScenario.node[72].veinsmobility  acceleration  ETV
vector 510  DVCastScenario.node[72].veinsmobility  co2emission  ETV
vector 513  DVCastScenario.node[73].veinsmobility  posx  ETV
vector 514  DVCastScenario.node[73].veinsmobility  posy  ETV
vector 515  DVCastScenario.node[73].veinsmobility  speed  ETV
vector 516  DVCastScenario.node[73].veinsmobility  acceleration  ETV
vector 517  DVCastScenario.node[73].veinsmobility  co2emission  ETV
vector 520  DVCastScenario.node[74].veinsmobility  posx  ETV
vector 521  DVCastScenario.node[74].veinsmobility  posy  ETV
vector 522  DVCastScenario.node[74].veinsmobility  speed  ETV
vector 523  DVCastScenario.node[74].veinsmobility  acceleration  ETV
vector 524  DVCastScenario.node[74].veinsmobility  co2emission  ETV
vector 527  DVCastScenario.node[75].veinsmobility  posx  ETV
vector 528  DVCastScenario.node[75].veinsmobility  posy  ETV
vector 529  DVCastScenario.node[75].veinsmobility  speed  ETV
vector 530  DVCastScenario.node[75].veinsmobility  acceleration  ETV
vector 531  DVCastScenario.node[75].veinsmobility  co2emission  ETV
vector 534  DVCastScenario.node[76].veinsmobility  posx  ETV
vector 535  DVCastScenario.node[76].veinsmobility  posy  ETV
vector 536  DVCastScenario.node[76].veinsmobility  speed  ETV
vector 537  DVCastScenario.node[76].veinsmobility  acceleration  ETV
vector 538  DVCastScenario.node[76].veinsmobility  co2emission  ETV
vector 541  DVCastScenario.node[77].veinsmobility  posx  ETV
vector 542  DVCastScenario.node[77].veinsmobility  posy  ETV
vector 543  DVCastScenario.node[77].veinsmobility  speed  ETV
vector 544  DVCastScenario.node[77].veinsmobility  acceleration  ETV
vector 545  DVCastScenario.node[77].veinsmobility  co2emission  ETV
vector 548  DVCastScenario.node[78].veinsmobility  posx  ETV
vector 549  DVCastScenario.node[78].veinsmobility  posy  ETV
vector 550  DVCastScenario.node[78].veinsmobility  speed  ETV
vector 551  DVCastScenario.node[78].veinsmobility  acceleration  ETV
vector 552  DVCastScenario.node[78].veinsmobility  co2emission  ETV
20	48	2.3	1.4143004001721
20	49	2.4	1.540148055002
20	50	2.5	1.7033655939432
20	51	2.6	1.8329593050264
20	52	2.7	1.8896754258642
20	53	2.8	1.9896598159075
20	54	2.9	2.1175098742628
20	55	3	2.2120669363
20	56	3.1	2.3251329930241
20	65	3.2	2.1993809645695
20	66	3.3	2.7817128232219
20	67	3.4	2.9213097071403
20	68	3.5	2.8242305945104
20	69	3.6	2.8709270014932
20	70	3.7	2.4606993962945
20	71	3.8	2.4382419317571
20	72	3.9	3.4801393208625
20	73	4	2.8607700939213
20	74	4.1	3.5158253924649
20	83	4.2	3.1956377452414
20	84	4.3	3.9204958416513
20	85	4.4	3.4752317836334
20	86	4.5	4.1187679844423
20	87	4.6	3.5244263182556
20	88	4.7	4.446351075209
20	89	4.8	4.9322892697704
20	90	4.9	4.9474479874772
20	91	5	4.2819362657861
20	92	5.1	3.9163037788907
20	101	5.2	5.2927978893756
20	102	5.3	5.0169569382502
20	103	5.4	4.3058551232124
20	104	5.5	4.7730590113866
20	105	5.6	3.9246050476623
20	106	5.7	5.8921000312997
20	107	5.8	5.9211661250402
20	108	5.9	4.4244433898995
20	109	6	5.94024721012
20	110	6.1	6.1343379982723
20	119	6.2	5.3859112561075
20	120	6.3	5.82595655052
20	121	6.4	4.8984854711269
20	122	6.5	6.4208387600622
20	123	6.6	5.9906468379074
20	124	6.7	5.7396757000645
20	125	6.8	5.7029575428859
20	126	6.9	5.105977724373
20	127	7	6.0820712863898
20	128	7.1	7.0562178435147
20	129	7.2	6.8051156300816
20	130	7.3	6.8798610164207
20	131	7.4	5.1032647168739
20	132	7.5	6.8569748963534
20	133	7.6	5.9052187149672
20	134	7.7	5.3505499074947
20	135	7.8	5.8229402269549
20	136	7.9	6.2593983601702
20	137	8	7.2442839468888
20	138	8.1	8.6844811791873
20	147	8.2	5.9116910797684
20	148	8.3	7.1653079832045
20	149	8.4	7.2887073740674
20	150	8.5	8.6018156533898
20	151	8.6	6.1521126841115
20	152	8.7	9.0635516267689
20	153	8.8	7.3459030821919
20	154	8.9	10.122343269349
20	155	9	6.6930984250862
20	156	9.1	9.5343007319866
20	165	9.2	2.9887101636526
20	166	9.3	2.3341867258168
20	167	9.4	0.973
20	168	9.5	3.645357308036
20	169	9.6	1.5409166927287
20	170	9.7	0.973
20	171	9.8	2.4103113219864
20	172	9.9	4.4234528317265
20	173	10	0.973
20	174	10.1	5.0851881627535
20	183	10.2	2.1543817234592
20	184	10.3	0.973
20	185	10.4	3.1000541201989
20	186	10.5	0.973
20	187	10.6	2.803987597866
20	188	10.7	2.6256798242779
20	189	10.8	0.973
20	190	10.9	1.8432779335404
20	191	11	4.3183074900715
20	192	11.1	3.2435571718982
20	201	11.2	1.9130883014587
20	202	11.3	0.973
20	211	11.4	4.3148780879619
20	212	11.5	1.4504871834582
20	213	11.6	0.973
20	214	11.7	1.5267003191178
20	215	11.8	5.571112383158
20	216	11.9	0.973
20	217	12	2.8820219100633
20	218	12.1	0.973
20	227	12.2	2.8022884168511
20	228	12.3	0.973
20	229	12.4	2.2148994007594
20	238	12.5	0.973
20	239	12.6	4.1234171590961
20	240	12.7	2.3149089995272
20	241	12.8	0.973
20	242	12.9	5.9957186503124
20	243	13	0.973
20	244	13.1	0.973
20	253	13.2	6.0498236975939
20	254	13.3	0.973
20	255	13.4	4.4790724508015
20	256	13.5	2.4727207325628
20	257	13.6	2.6840974073965
20	258	13.7	0.973
20	259	13.8	2.8096514178668
20	260	13.9	3.3313584370595
20	261	14	0.973
20	262	14.1	0.973
20	277	14.2	4.2927540886191
20	278	14.3	0.973
20	279	14.4	4.8345566736961
20	280	14.5	0.973
20	281	14.6	2.7963140475104
20	290	14.7	0.973
20	291	14.8	2.8048242388122
20	292	14.9	2.2647264398435
20	293	15	0.973
20	294	15.1	2.4952404552206
20	303	15.2	5.3260605467789
20	304	15.3	0.973
20	305	15.4	4.6976517756215
20	306	15.5	0.973
20	307	15.6	3.3630963691249
20	308	15.7	1.9765695397496
20	309	15.8	2.7824054041308
20	310	15.9	0.973
20	311	16	5.8767531667529
20	312	16.1	0.973
20	333	16.2	1.1077417847398
20	334	16.3	4.1246195691125
20	335	16.4	2.1980199660889
20	344	16.5	1.0919409835649
20	345	16.6	1.3646281111753
20	346	16.7	5.4748122783508
20	347	16.8	0.973
20	348	16.9	3.5322455486101
20	349	17	3.1228495366842
20	364	17.1	2.5108511524983
20	379	17.2	2.5685106727365
20	380	17.3	0.973
20	381	17.4	4.1221011254914
20	382	17.5	0.973
20	383	17.6	3.0490647314604
20	384	17.7	0.973
20	385	17.8	2.0245525507171
20	386	17.9	3.5222313834107
20	387	18	0.973
20	388	18.1	4.7479816452675
20	405	18.2	1.1325190572309
20	406	18.3	2.6028335827562
20	407	18.4	1.9087664037248
20	408	18.5	1.127427623621
20	409	18.6	1.5257974096476
20	410	18.7	1.1369313003956
20	411	18.8	4.7727814848679
20	412	18.9	0.973
20	413	19	1.0772117865031
20	422	19.1	2.4457932863202
20	423	19.2	1.7821140142412
20	424	19.3	2.8451385393203
20	425	19.4	2.068931534975
20	434	19.5	4.7450295564635
20	435	19.6	0.973
20	436	19.7	3.6703599837173
20	437	19.8	2.1482749129001
20	438	19.9	1.2556931384365
20	439	20	2.9592683201529
20	440	20.1	0.973
20	467	20.2	2.8822197215859
20	468	20.3	2.5164973899482
20	469	20.4	3.4862371313225
20	470	20.5	0.973
20	471	20.6	0.973
20	472	20.7	2.9331407734271
20	473	20.8	3.8427708222849
20	474	20.9	2.2155768330084
20	475	21	0.973
20	476	21.1	3.7631989002871
20	497	21.2	0.973
20	498	21.3	5.3342929776005
20	507	21.4	0.973
20	508	21.5	4.3782049027495
20	525	21.6	1.1996957208632
20	526	21.7	1.9865034021472
20	527	21.8	4.0102070587763
20	528	21.9	0.973
20	529	22	5.9358690239244
20	530	22.1	0.973
20	531	22.2	1.3886415733413
20	532	22.3	2.8935575666013
20	533	22.4	3.5364297364948
20	534	22.5	0.973
20	535	22.6	1.1433340300723
20	536	22.7	3.580580686821
20	537	22.8	3.2666632316997
20	538	22.9	3.3479022246981
20	539	23	0.973
20	540	23.1	4.1135475723654
20	541	23.2	2.2524896044351
20	542	23.3	0.973
20	543	23.4	3.9877850223871
20	544	23.5	2.1189641952245
20	561	23.6	2.0914613962843
20	562	23.7	0.973
20	563	23.8	1.8964761020867
20	572	23.9	2.5242226995037
20	573	24	2.1686826081168
20	574	24.1	3.7463697116932
20	583	24.2	0.973
20	584	24.3	1.3727227724527
20	585	24.4	2.5141448843639
20	586	24.5	3.3121179225996
20	587	24.6	1.1787990996227
20	588	24.7	0.973
20	597	24.8	2.9046892997926
20	598	24.9	1.1195184598016
20	599	25	2.8331199973102
20	600	25.1	1.6647528634158
20	615	25.2	2.6907841077659
20	616	25.3	3.4525022266609
20	617	25.4	0.973
20	618	25.5	2.4088055319604
20	627	25.6	0.973
20	628	25.7	3.3087778974617
20	629	25.8	0.973
20	630	25.9	5.3842820733941
20	631	26	0.973
20	632	26.1	0.973
20	641	26.2	5.7280211370109
20	650	26.3	0.973
20	651	26.4	3.0050938012486
20	652	26.5	4.0402646101349
20	653	26.6	0.973
20	654	26.7	5.1440975707001
20	655	26.8	2.6749355764748
20	676	26.9	0.973
20	677	27	3.0740768256751
20	678	27.1	0.973
20	687	27.2	4.4720966052408
20	696	27.3	1.4531610155038
20	697	27.4	0.973
20	698	27.5	2.8945065798221
20	699	27.6	3.9834428506331
20	708	27.7	1.970278027459
20	709	27.8	1.1970447071484
20	710	27.9	0.973
20	711	28	2.588167866707
20	712	28.1	4.4273219689983
20	721	28.2	0.973
20	722	28.3	3.5536228234669
20	723	28.4	0.973
20	724	28.5	2.3461700947783
20	725	28.6	5.3531946010073
20	726	28.7	1.9917053719478
20	727	28.8	0.973
20	754	28.9	4.8636574714041
20	755	29	3.0112828195582
20	756	29.1	1.5137590101203
20	771	29.2	2.1732595385835
20	772	29.3	0.973
20	773	29.4	4.6980736911576
20	774	29.5	2.0148939857091
20	783	29.6	0.973
20	784	29.7	1.7120687668428
20	793	29.8	3.3073889520516
20	802	29.9	0.973
20	803	30	2.2697270824063
20	812	30.1	4.3456558612349
20	821	30.2	1.3912418854689
20	830	30.3	2.8255387220619
20	831	30.4	0.973
20	832	30.5	4.9082824141508
20	833	30.6	0.973
20	842	30.7	2.328874023838
20	843	30.8	2.802545648427
20	844	30.9	0.973
20	845	31	4.5611750573778
20	860	31.1	0.973
20	869	31.2	2.1950182202356
20	870	31.3	3.8866544395781
20	871	31.4	1.6292700696149
20	872	31.5	0.973
20	873	31.6	4.0021476466834
20	874	31.7	0.973
20	883	31.8	4.6127741218358
20	884	31.9	0.973
20	885	32	2.9746963557897
20	886	32.1	0.973
20	901	32.2	4.7599462938387
20	902	32.3	0.973
20	923	32.4	4.0797285683736
20	924	32.5	0.973
20	925	32.6	4.4451576566482
20	926	32.7	1.9528341940027
20	927	32.8	1.1189294383772
20	928	32.9	0.973
20	937	33	5.5151508962184
20	938	33.1	2.095576979246
20	947	33.2	1.5802481052037
20	948	33.3	0.973
20	949	33.4	1.8195217427221
20	950	33.5	5.6905442329819
20	951	33.6	0.973
20	952	33.7	2.6082046211393
20	953	33.8	0.973
20	954	33.9	3.541860627554
20	963	34	0.973
20	964	34.1	4.6919808785602
20	973	34.2	0.973
20	982	34.3	2.3697300205408
20	983	34.4	2.8302165746813
20	984	34.5	2.1551717345108
20	985	34.6	0.973
20	986	34.7	4.4153767262296
20	987	34.8	0.973
20	988	34.9	4.1080429405531
20	989	35	0.973
20	1010	35.1	3.6557182086887
20	1031	35.2	1.6201287149841
20	1040	35.3	3.1401380783571
20	1041	35.4	0.973
20	1042	35.5	6.1424177665008
20	1043	35.6	0.973
20	1044	35.7	5.6605120850871
20	1045	35.8	0.973
20	1062	35.9	0.973
20	1077	36	4.9869662718421
20	1078	36.1	0.973
20	1113	36.2	1.1198950307046
20	1114	36.3	3.5006849433429
20	1115	36.4	3.5486032883245
20	1116	36.5	1.592484788099
20	1117	36.6	1.2432997219422
20	1118	36.7	1.6450639337259
20	1119	36.8	0.973
20	1120	36.9	4.2316169267443
20	1121	37	1.533726146731
20	1122	37.1	1.1649973066307
20	1131	37.2	3.8563295436096
20	1140	37.3	1.6124643858785
20	1141	37.4	0.973
20	1142	37.5	1.9924434492694
20	1143	37.6	3.0598016179817
20	1144	37.7	3.1696611553951
20	1145	37.8	0.973
20	1146	37.9	2.0296836563031
20	1147	38	4.0280566642199
20	1148	38.1	0.973
20	1171	38.2	2.6984471315344
20	1172	38.3	1.3919715725118
20	1173	38.4	3.6881080583474
20	1174	38.5	0.973
20	1175	38.6	4.0499760928537
20	1190	38.7	0.973
20	1191	38.8	1.9570821603579
20	1192	38.9	3.9856469501219
20	1193	39	2.0519515150004
20	1194	39.1	4.2537453590883
20	1209	39.2	0.973
20	1224	39.3	2.8668703650071
20	1225	39.4	0.973
20	1234	39.5	1.629985205821
20	1235	39.6	3.362485951099
20	1244	39.7	2.5639640627667
20	1245	39.8	0.973
20	1246	39.9	4.3117621739886
20	1269	40	0.973
20	1270	40.1	4.8253394751631
20	1291	40.2	0.973
20	1292	40.3	4.4126988895566
20	1293	40.4	1.8394535585091
20	1308	40.5	2.7268282380136
20	1309	40.6	0.973
20	1310	40.7	3.40728519648
20	1345	40.8	0.973
20	1346	40.9	0.973
20	1363	41	0.973
20	1364	41.1	0.973
20	1397	41.2	0.973
20	1398	41.3	0.973
20	1399	41.4	0.973
20	1400	41.5	0.973
20	1409	41.6	0.973
20	1410	41.7	0.973
20	1411	41.8	0.973
20	1426	41.9	0.973
20	1441	42	0.973
20	1442	42.1	0.973
20	1451	42.2	0.973
20	1452	42.3	0.973
20	1461	42.4	0.973
20	1476	42.5	0.973
20	1477	42.6	0.973
20	1478	42.7	0.973
20	1479	42.8	0.973
20	1480	42.9	0.973
20	1481	43	0.973
20	1482	43.1	0.973
20	1491	43.2	0.973
20	1500	43.3	0.973
20	1501	43.4	0.973
20	1502	43.5	0.973
20	1503	43.6	0.973
20	1504	43.7	0.973
20	1505	43.8	0.973
20	1506	43.9	0.973
20	1521	44	0.973
20	1530	44.1	0.973
20	1565	44.2	0.973
20	1566	44.3	0.973
20	1575	44.4	3.5643171200392
20	1576	44.5	3.7407948012458
20	1577	44.6	3.9174182490308
20	1578	44.7	4.0941972053012
20	1579	44.8	4.2711414119642
20	1580	44.9	4.448260610927
20	1581	45	4.6255645440968
20	1582	45.1	4.8030629533807
20	1611	45.2	4.9807655806859
20	1612	45.3	4.6849796039295
20	1613	45.4	4.223356560848
20	1614	45.5	4.8680533795441
20	1623	45.6	4.730995877961
20	1624	45.7	4.4344138284812
20	1633	45.8	3.7024533042333
20	1634	45.9	4.780618371846
20	1635	46	4.8519215246454
20	1636	46.1	3.8845587352492
20	1665	46.2	5.7230396689843
20	1674	46.3	5.8671788453976
20	1683	46.4	4.54184932189
20	1692	46.5	5.698297084585
20	1701	46.6	4.8475490526535
20	1710	46.7	6.5292631720553
20	1711	46.8	6.7988229053193
20	1712	46.9	5.785826706709
20	1713	47	5.0019877492948
20	1714	47.1	7.3375040354983
20	1715	47.2	6.1013881115
20	1716	47.3	6.9640309532046
20	1717	47.4	5.6836917475102
20	1718	47.5	5.5288316295518
20	1733	47.6	5.0784907254174
20	1734	47.7	5.368402130713
20	1735	47.8	6.5261137664088
20	1736	47.9	6.5648992953534
20	1737	48	8.2970945751484
20	1738	48.1	7.6056970057412
20	1747	48.2	7.9128780420371
20	1794	48.3	5.817934783589
20	1803	48.4	8.3501085914959
20	1836	48.5	6.9870235617587
20	1837	48.6	9.5657272780422
20	1838	48.7	6.111308391376
20	1847	48.8	7.9800209036809
20	1870	48.9	7.8816121824493
20	1871	49	6.5590965092578
20	1872	49.1	8.1292593874551
20	1899	49.2	7.0396715447664
20	1908	49.3	8.8457969386598
20	1923	49.4	9.1686929115086
20	1944	49.5	4.4048266952276
20	1945	49.6	2.5736827570061
20	1954	49.7	1.168336783309
20	1955	49.8	0.973
20	1956	49.9	1.5789974587087
20	1957	50	2.9145884228159
20	1966	50.1	3.6247728004695
20	2007	50.2	0.973
20	2028	50.3	3.5989862301253
20	2037	50.4	4.0877755990403
20	2052	50.5	0.973
20	2053	50.6	3.3977803914712
20	2054	50.7	3.4339254093495
20	2063	50.8	2.8137955482018
20	2064	50.9	0.973
20	2065	51	2.184336332658
20	2066	51.1	3.1171930800307
20	2075	51.2	0.973
20	2076	51.3	5.7637103372049
20	2077	51.4	0.973
20	2078	51.5	3.8147175960232
20	2079	51.6	2.266739762443
20	2080	51.7	0.973
20	2081	51.8	0.973
20	2096	51.9	5.2837486886895
20	2097	52	0.973
20	2106	52.1	3.804886654434
20	2149	52.2	0.973
20	2166	52.3	2.3575595639306
20	2205	52.4	3.3746597571285
20	2206	52.5	0.973
20	2207	52.6	2.1181928286198
20	2208	52.7	5.2369785288365
20	2209	52.8	2.2019070458298
20	2210	52.9	0.973
20	2211	53	0.973
20	2220	53.1	2.6299938704689
20	2247	53.2	2.1409286933955
20	2282	53.3	3.7691650912185
20	2283	53.4	0.973
20	2316	53.5	0.973
20	2317	53.6	4.0705543150706
20	2318	53.7	0.973
20	2319	53.8	3.1607910907285
20	2320	53.9	2.7913314375877
20	2335	54	1.6571567601516
20	2336	54.1	4.323335168616
20	2395	54.2	0.973
20	2416	54.3	4.7690189686671
20	2417	54.4	1.8703105342937
20	2432	54.5	1.8163218841151
20	2433	54.6	0.973
20	2448	54.7	3.2332421628741
20	2449	54.8	3.2858499686502
20	2464	54.9	1.4071340884294
20	2473	55	0.973
20	2474	55.1	3.6688259535919
20	2475	55.2	1.5037020611857
20	2508	55.3	2.2939870884246
20	2509	55.4	1.6455075743078
20	2510	55.5	1.8013203793015
20	2511	55.6	2.6700410952258
20	2512	55.7	2.9910777048273
20	2521	55.8	0.973
20	2522	55.9	0.973
20	2523	56	3.9915015357765
20	2524	56.1	0.973
20	2581	56.2	2.585467770207
20	2582	56.3	1.9165786952229
20	2591	56.4	1.1773191455581
20	2592	56.5	3.1600414433838
20	2593	56.6	3.0441464363132
20	2594	56.7	0.973
20	2639	56.8	6.2890266236136
20	2640	56.9	0.973
20	2669	57	3.7066155360056
20	2670	57.1	2.5615668381498
20	2697	57.2	0.973
20	2698	57.3	2.2823857101331
20	2713	57.4	2.4862373528303
20	2722	57.5	2.7081762238602
20	2737	57.6	0.973
20	2738	57.7	3.925416979855
20	2747	57.8	0.973
20	2776	57.9	2.7243565823044
20	2777	58	2.9188434989812
20	2800	58.1	1.3943294191322
20	2849	58.2	4.1922580668757
20	2864	58.3	0.973
20	2865	58.4	1.8987923909993
20	2866	58.5	3.1286310351745
20	2875	58.6	0.973
20	2876	58.7	3.5484437400816
20	2885	58.8	2.509284986935
20	2886	58.9	0.973
20	2921	59	3.1564172450517
20	2922	59.1	2.1838111137193
20	2951	59.2	3.404158051155
20	2952	59.3	0.973
20	2953	59.4	4.6444496884404
20	2954	59.5	0.973
20	2955	59.6	0.973
20	2970	59.7	5.2316441461385
20	2971	59.8	0.973
20	2972	59.9	2.9611698021066
20	2973	60	2.209658751271
20	3006	60.1	2.9705801282729
20	3033	60.2	1.4285138296198
20	3048	60.3	2.0951163636358
20	3049	60.4	1.3184009811004
20	3072	60.5	4.4838502013428
20	3073	60.6	1.4020011685948
20	3088	60.7	0.973
20	3089	60.8	3.5394828607496
20	3090	60.9	1.9528975575352
20	3091	61	1.9274937734583
20	3100	61.1	1.8517808054228
20	3101	61.2	2.6417001589434
20	3102	61.3	2.6398669277437
20	3111	61.4	1.3317669934639
20	3128	61.5	2.2492542380793
20	3129	61.6	0.973
20	3130	61.7	5.4658299749073
20	3163	61.8	0.973
20	3212	61.9	4.5667839184862
20	3245	62	1.1417830809663
20	3246	62.1	3.4949999051957
20	3261	62.2	0.973
20	3276	62.3	0.973
20	3277	62.4	1.4538705600061
20	3278	62.5	5.3438705944241
20	3287	62.6	1.7067151454926
20	3302	62.7	0.973
20	3303	62.8	2.8093447909291
20	3304	62.9	3.8143956785576
20	3305	63	0.973
20	3306	63.1	3.1948610952704
20	3359	63.2	1.705906699204
20	3380	63.3	0.973
20	3389	63.4	5.6697617176091
20	3462	63.5	1.8629564825538
20	3491	63.6	0.973
20	3492	63.7	1.260239794144
20	3521	63.8	5.2514386452686
20	3522	63.9	0.973
20	3523	64	5.414593168595
20	3524	64.1	0.973
20	3591	64.2	4.0715226389738
20	3606	64.3	2.7405237459896
20	3607	64.4	0.973
20	3628	64.5	3.9372231571066
20	3637	64.6	0.973
20	3638	64.7	3.2428786885364
20	3639	64.8	0.973
20	3666	64.9	2.0030112294925
20	3667	65	4.8911591331889
20	3688	65.1	1.3189882617838
20	3715	65.2	3.2353922921142
20	3736	65.3	0.973
20	3757	65.4	3.0698918967066
20	3772	65.5	0.973
20	3773	65.6	4.5350880722986
20	3774	65.7	3.0189211203226
20	3845	65.8	1.5602696627249
20	3846	65.9	0.973
20	3861	66	1.7120613417879
20	3876	66.1	3.3937574608726
20	3891	66.2	0.973
20	3892	66.3	3.129595433568
20	3893	66.4	1.6525828973312
20	3902	66.5	4.2255193776899
20	3903	66.6	0.973
20	3924	66.7	5.5175006311381
20	3939	66.8	0.973
20	3940	66.9	4.2411461581508
20	3941	67	0.973
20	3942	67.1	1.8164187260519
20	3989	67.2	2.8886460734592
20	4004	67.3	3.3434888972221
20	4025	67.4	0.973
20	4026	67.5	4.3061294346963
20	4089	67.6	0.973
20	4098	67.7	3.1535944468178
20	4099	67.8	2.540798024496
20	4120	67.9	0.973
20	4153	68	2.8636377687684
20	4154	68.1	2.4856953631925
20	4155	68.2	0.973
20	4204	68.3	3.5821964322809
20	4205	68.4	1.5502184883744
20	4206	68.5	0.973
20	4207	68.6	2.1902849685067
20	4216	68.7	0.973
20	4217	68.8	2.7961939960454
20	4218	68.9	3.5417576928658
20	4233	69	0.973
20	4248	69.1	5.6531848411902
20	4289	69.2	0.973
20	4330	69.3	2.5002854345219
20	4331	69.4	3.4856726224995
20	4346	69.5	0.973
20	4347	69.6	3.9587121965539
20	4348	69.7	3.4874610928698
20	4369	69.8	1.9557792075555
20	4370	69.9	0.973
20	4379	70	0.973
20	4380	70.1	4.4273802585635
20	4415	70.2	0.973
20	4416	70.3	2.7029319190787
20	4417	70.4	4.3189198863946
20	4418	70.5	1.1129293987969
20	4427	70.6	0.973
20	4428	70.7	2.1651209155928
20	4429	70.8	3.8338202876163
20	4458	70.9	2.3441675421577
20	4499	71	1.941519884521
20	4540	71.1	1.712311914174
20	4573	71.2	2.7047078487736
20	4574	71.3	2.0502665177873
20	4633	71.4	1.5283068456409
20	4634	71.5	2.9582471806195
20	4635	71.6	1.6942823524798
20	4636	71.7	0.973
20	4645	71.8	4.4676363390156
20	4646	71.9	2.4291249089505
20	4647	72	0.973
20	4662	72.1	4.3989051347679
20	4663	72.2	0.973
20	4664	72.3	2.9121393002476
20	4691	72.4	0.973
20	4712	72.5	0.973
20	4767	72.6	2.5250429686872
20	4768	72.7	5.5486180137619
20	4777	72.8	1.2878255698639
20	4806	72.9	1.9479938143928
20	4833	73	0.973
20	4866	73.1	4.0361339758961
20	4887	73.2	1.9282641435328
20	4948	73.3	0.973
20	4949	73.4	3.2289561048056
20	4964	73.5	2.6962049905551
20	4965	73.6	0.973
20	4966	73.7	3.7661290332005
20	4967	73.8	0.973
20	4968	73.9	4.8447118581903
20	4977	74	2.513773201971
20	4978	74.1	0.973
20	4979	74.2	3.3300693873611
20	5020	74.3	1.1363323185289
20	5029	74.4	4.5172167358117
20	5030	74.5	0.973
20	5031	74.6	0.973
20	5032	74.7	0.973
20	5053	74.8	0.973
20	5062	74.9	0.973
20	5123	75	0.973
20	5125	75.1	0.973
20	5160	75.2	0.973
20	5181	75.3	0.973
20	5182	75.4	0.973
20	5221	75.5	0.973
20	5222	75.6	0.973
20	5239	75.7	0.973
20	5240	75.8	0.973
20	5241	75.9	0.973
20	5250	76	0.973
20	5251	76.1	0.973
20	5292	76.2	0.973
20	5293	76.3	0.973
20	5320	76.4	0.973
20	5353	76.5	0.973
20	5374	76.6	0.973
20	5375	76.7	0.973
20	5390	76.8	0.973
20	5399	76.9	0.973
20	5408	77	0.973
20	5449	77.1	0.973
20	5496	77.2	0.973
20	5497	77.3	0.973
20	5498	77.4	0.973
20	5519	77.5	0.973
20	5520	77.6	0.973
20	5559	77.7	0.973
20	5592	77.8	0.973
20	5593	77.9	0.973
20	5594	78	0.973
20	5595	78.1	0.973
20	5596	78.2	0.973
20	5597	78.3	0.973
20	5650	78.4	0.973
20	5651	78.5	0.973
20	5660	78.6	0.973
20	5693	78.7	0.973
20	5732	78.8	0.973
20	5733	78.9	0.973
20	5748	79	0.973
20	5765	79.1	0.973
20	5820	79.2	0.973
20	5821	79.3	0.973
20	5822	79.4	0.973
20	5823	79.5	0.973
20	5824	79.6	0.973
20	5847	79.7	0.973
20	5856	79.8	0.973
20	5865	79.9	0.973
20	5880	80	0.973
20	5881	80.1	0.973
20	5924	80.2	0.973
20	5925	80.3	0.973
20	5934	80.4	0.973
20	5955	80.5	0.973
20	6030	80.6	1.617967066576
20	6057	80.7	1.793482010624
20	6072	80.8	1.9690348980463
20	6113	80.9	2.14463547075
20	6156	81	2.3202934706422
20	6157	81.1	2.4039684376877
20	6172	81.2	2.5639024574909
20	6193	81.3	2.3643159458817
20	6240	81.4	2.2708239167156
20	6241	81.5	2.6920916936059
20	6242	81.6	3.0991427271515
20	6257	81.7	2.5534456620989
20	6310	81.8	2.4044064986418
20	6311	81.9	2.6219340664421
20	6312	82	3.6216121985023
20	6333	82.1	3.7842771577671
20	6374	82.2	3.2476873045617
20	6375	82.3	3.4012703434879
20	6376	82.4	3.9741965059351
20	6423	82.5	3.6828009743819
20	6424	82.6	3.2157875127479
20	6445	82.7	3.7363283449251
20	6446	82.8	4.7793985163519
20	6447	82.9	4.8971670507926
20	6462	83	5.119560303581
20	6463	83.1	4.4303989394396
20	6492	83.2	3.5273801735377
20	6493	83.3	4.3973961744615
20	6494	83.4	4.74871336594
20	6495	83.5	5.6858714452664
20	6528	83.6	5.558878381995
20	6529	83.7	4.873232937789
20	6530	83.8	4.1588977873172
20	6531	83.9	4.9923742242893
20	6564	84	4.4899982949163
20	6565	84.1	6.0238476597783
20	6592	84.2	5.3092246502593
20	6601	84.3	4.2661058671503
20	6648	84.4	5.0914135160781
20	6663	84.5	6.1022651031414
20	6664	84.6	4.5560590002299
20	6693	84.7	5.010398408123
20	6762	84.8	7.1108055684888
20	6777	84.9	4.9737208764914
20	6792	85	7.4298526981339
20	6801	85.1	7.2954745612843
20	6802	85.2	4.8991022046095
20	6861	85.3	7.0608493305018
20	6862	85.4	5.7399894074069
20	6901	85.5	8.3318114426656
20	6942	85.6	5.6299472890351
20	6957	85.7	6.2618513374214
20	6966	85.8	5.502604985061
20	6967	85.9	7.1546489974101
20	6968	86	7.7669465972863
20	6996	86.1	5.516807191742
20	6997	86.2	6.1561534260858
20	7026	86.3	7.471360648296
20	7047	86.4	6.8905253306533
20	7088	86.5	8.8244208060588
20	7173	86.6	7.994872486168
20	7174	86.7	6.6369791422191
20	7195	86.8	9.5395294705813
20	7196	86.9	7.4595775252231
20	7197	87	9.120664616698
20	7212	87.1	6.4383688273296
20	7233	87.2	9.3158320369183
20	7268	87.3	9.4712276497844
20	7289	87.4	9.6015124324053
20	7322	87.5	9.1343677254076
20	7323	87.6	9.7167809995764
20	7362	87.7	10.813955411974
20	7383	87.8	7.1674755162371
20	7404	87.9	9.0472562710759
20	7405	88	10.73893333359
20	7406	88.1	7.8947019303664
20	7473	88.2	8.6908344284096
20	7474	88.3	10.349908954437
20	7495	88.4	8.6538212025195
20	7496	88.5	8.1353972184095
20	7531	88.6	8.1919204671715
20	7552	88.7	11.413119258067
20	7627	88.8	7.8508643033584
20	7628	88.9	11.385571059473
20	7629	89	8.7655030140877
20	7630	89.1	11.403052248534
20	7651	89.2	11.437808852587
20	7652	89.3	13.034319403657
20	7653	89.4	13.015410633829
20	7654	89.5	13.563872227705
20	7655	89.6	8.4447653237685
20	7762	89.7	10.17843563145
20	7783	89.8	9.0040874157553
20	7784	89.9	14.064851399213
20	7839	90	11.788540843308
20	7878	90.1	11.139608366922
20	7895	90.2	11.012033209055
20	7924	90.3	11.825590241577
20	7939	90.4	14.424885933696
20	7948	90.5	13.847733382212
20	7957	90.6	11.970131121903
20	7996	90.7	12.288056187437
20	7997	90.8	15.598174407849
20	8012	90.9	11.137845542239
20	8013	91	9.9581151645124
20	8014	91.1	13.85966604167
20	8015	91.2	15.656441682259
20	8016	91.3	15.990654580272
20	8051	91.4	12.243211716197
20	8060	91.5	6.9862712420079
20	8093	91.6	3.9940826401519
20	8114	91.7	7.3724686793539
20	8115	91.8	3.3911151467271
20	8116	91.9	0.973
20	8215	92	2.3189897865756
20	8288	92.1	2.0499372609513
20	8311	92.2	8.5122205352384
20	8312	92.3	3.0899450162714
20	8313	92.4	0.973
20	8314	92.5	5.3306318389146
20	8329	92.6	6.8130401653487
20	8330	92.7	0.973
20	8365	92.8	7.5256713553226
20	8406	92.9	0.973
20	8407	93	7.612010040045
20	8428	93.1	4.3237798253286
20	8493	93.2	0.973
20	8540	93.3	3.8029131600046
20	8591	93.4	7.1856877030968
20	8606	93.5	0.973
20	8615	93.6	7.6666952874827
20	8616	93.7	0.973
20	8617	93.8	4.651793711291
20	8618	93.9	7.1588155425929
20	8639	94	0.973
20	8640	94.1	6.0274530984347
20	8655	94.2	0.973
20	8664	94.3	3.6288379056349
20	8665	94.4	5.515802152468
20	8686	94.5	2.4449956995487
20	8695	94.6	2.5600725473625
20	8696	94.7	2.3095727867848
20	8767	94.8	2.9239176985468
20	8768	94.9	7.0220989669825
20	8769	95	0.973
20	8778	95.1	4.6875544674894
20	8821	95.2	5.5668372799677
20	8880	95.3	2.6483285273902
20	8881	95.4	1.627166417682
20	8890	95.5	4.21308307441
20	8891	95.6	2.6908092234993
20	8900	95.7	5.3968259740245
20	8927	95.8	3.602372992852
20	9000	95.9	0.973
20	9001	96	1.9480888552811
20	9028	96.1	7.9570374012954
20	9081	96.2	0.973
20	9090	96.3	1.9213372378526
20	9091	96.4	5.9131427198422
20	9092	96.5	0.91884565893385
20	9137	96.6	3.6604813427677
20	9146	96.7	3.2806090861416
20	9147	96.8	4.4189930912435
20	9148	96.9	0.75813705798369
20	9273	97	7.3910307211844
20	9300	97.1	2.9569998323945
20	9315	97.2	2.3392026812996
20	9324	97.3	6.1620436327239
20	9389	97.4	3.0226963633626
20	9390	97.5	0.9845951610333
20	9461	97.6	5.2579310040527
20	9484	97.7	0.29791659006891
20	9511	97.8	5.1045297661497
20	9528	97.9	3.7065656206152
20	9529	98	0.973
20	9530	98.1	3.4269855364844
20	9551	98.2	7.4086491252727
20	9648	98.3	0.83959969269593
20	9675	98.4	1.9795819851431
20	9716	98.5	3.1837603979995
20	9717	98.6	4.8255856606174
20	9764	98.7	2.4552277678737
20	9817	98.8	0.37748046457455
20	9896	98.9	5.3429511162554
20	9905	99	5.4576798505761
20	9927	99.1	2.3058302282899
20	10030	99.2	5.3929053123465
20	10083	99.3	0.973
20	10084	99.4	6.4968401267276
20	10113	99.5	4.9209593089472
20	10122	99.6	0.96366811211991
20	10155	99.7	5.5502454081158
20	10156	99.8	1.1952844811055
20	10157	99.9	2.4884343812369
20	10216	100	1.7430795596919
20	10217	100.1	5.3102302986648
20	10218	100.2	1.9896602601993
20	10245	100.3	1.9466236397107
20	10246	100.4	5.9550089272001
20	10335	100.5	4.7550468701941
20	10344	100.6	1.3060971277185
20	10345	100.7	3.5003071157959
20	10346	100.8	5.6871061583682
20	10347	100.9	3.2492677653386
20	10368	101	0.973
20	10383	101.1	5.7837337448851
20	10416	101.2	3.6736053759542
20	10463	101.3	1.2084622500365
20	10472	101.4	0.973
20	10493	101.5	5.9105123366886
20	10494	101.6	2.5765926694054
20	10539	101.7	7.5054616878073
20	10566	101.8	1.8672424358383
20	10567	101.9	1.6232718693796
20	10582	102	3.8092177541473
20	10583	102.1	0.973
20	10584	102.2	4.049053537427
20	10585	102.3	3.232210429122
20	10624	102.4	5.6902399602339
20	10671	102.5	0.77107627239882
20	10680	102.6	3.8510511550307
20	10689	102.7	0.45161491881651
20	10716	102.8	8.9755770646036
20	10751	102.9	0.973
20	10808	103	3.436372904745
20	10809	103.1	6.137136868993
20	10830	103.2	0.73623089741365
20	10831	103.3	6.0285107111795
20	10882	103.4	4.1842425687002
20	10915	103.5	2.5446302303912
20	10916	103.6	2.608553670301
20	10965	103.7	1.6926857748612
20	10966	103.8	0.63477542147674
20	11005	103.9	2.48804199209
20	11052	104	9.2965246279022
20	11053	104.1	0.973
20	11074	104.2	3.4946668445065
20	11107	104.3	1.2947466125004
20	11142	104.4	5.4186248408168
20	11177	104.5	4.3749369379382
20	11236	104.6	3.4131232916183
20	11237	104.7	1.6129292937972
20	11238	104.8	2.591951530244
20	11259	104.9	3.5656837281225
20	11292	105	7.1375373131224
20	11294	105.1	0.973
20	11353	105.2	5.1772674947585
20	11418	105.3	6.9151901024676
20	11451	105.4	1.0615598911845
19	48	2.3	2.351265448819
19	49	2.4	2.2716297040167
19	50	2.5	2.3674521353446
19	51	2.6	2.3187809624883
19	52	2.7	2.1075917070404
19	53	2.8	2.0684146814407
19	54	2.9	2.0980260653227
19	55	3	2.0577856977006
19	56	3.1	2.0591881467935
19	65	3.2	1.6826287563969
19	66	3.3	2.4242163747549
19	67	3.4	2.4054226770764
19	68	3.5	2.0975643285317
19	69	3.6	2.0150650135707
19	70	3.7	1.4269468483282
19	71	3.8	1.3392482108204
19	72	3.9	2.3778175380314
19	73	4	1.6241080194712
19	74	4.1	2.1774386041798
19	83	4.2	1.7754437308991
19	84	4.3	2.3284602138447
19	85	4.4	1.8435945681296
19	86	4.5	2.282246735529
19	87	4.6	1.722821981064
19	88	4.7	2.3444429362891
19	89	4.8	2.5823568655644
19	90	4.9	2.4750720785465
19	91	5	1.937488316698
19	92	5.1	1.6389573442517
19	101	5.2	2.4437444660347
19	102	5.3	2.1866218747105
19	103	5.4	1.699786244845
19	104	5.5	1.9197775312001
19	105	5.6	1.391914942814
19	106	5.7	2.4286627793917
19	107	5.8	2.361851227493
19	108	5.9	1.5223779631779
19	109	6	2.2489896407584
19	110	6.1	2.2766209183261
19	119	6.2	1.8560725280549
19	120	6.3	2.0160429485142
19	121	6.4	1.5420628344407
19	122	6.5	2.1928161682328
19	123	6.6	1.9482783020008
19	124	6.7	1.7955488706939
19	125	6.8	1.7417744001141
19	126	6.9	1.4580121515319
19	127	7	1.8318654081551
19	128	7.1	2.1827035831287
19	129	7.2	2.0333756048698
19	130	7.3	2.0176959742093
19	131	7.4	1.3014988962794
19	132	7.5	1.9391899146372
19	133	7.6	1.5504853515886
19	134	7.7	1.3226525562582
19	135	7.8	1.4737029762007
19	136	7.9	1.605614792672
19	137	8	1.9226524160709
19	138	8.1	2.3777174293995
19	147	8.2	1.3934943195432
19	148	8.3	1.7920780712739
19	149	8.4	1.8018442617031
19	150	8.5	2.1944715057965
19	151	8.6	1.3723158949055
19	152	8.7	2.2693365724059
19	153	8.8	1.6947534685489
19	154	8.9	2.5125754799461
19	155	9	1.4343273226405
19	156	9.1	2.257680908544
19	165	9.2	0.28966114123948
19	166	9.3	0.093084771931178
19	167	9.4	-0.48831646796316
19	168	9.5	0.48593463795259
19	169	9.6	-0.14429098805412
19	170	9.7	-0.4977632397553
19	171	9.8	0.11793676060625
19	172	9.9	0.71747105100657
19	173	10	-0.7588161790045
19	174	10.1	0.91396368502174
19	183	10.2	0.037940506194722
19	184	10.3	-0.74097470028793
19	185	10.4	0.32272657810244
19	186	10.5	-0.5993567172205
19	187	10.6	0.23572366049047
19	188	10.7	0.18135830105749
19	189	10.8	-0.44687165690121
19	190	10.9	-0.052095912932408
19	191	11	0.68776026519481
19	192	11.1	0.36363337242509
19	201	11.2	-0.03392338207922
19	202	11.3	-0.97510420207401
19	211	11.4	0.68640469084494
19	212	11.5	-0.17139244514983
19	213	11.6	-0.44883334671614
19	214	11.7	-0.14736054448877
19	215	11.8	1.0596211832482
19	216	11.9	-0.5178329006303
19	217	12	0.25700135503429
19	218	12.1	-0.39172418094241
19	227	12.2	0.23386617850047
19	228	12.3	-0.3081464482937
19	229	12.4	0.05859996143263
19	238	12.5	-0.41321741288993
19	239	12.6	0.63025489756837
19	240	12.7	0.08752297060564
19	241	12.8	-0.76517303672155
19	242	12.9	1.1858950278023
19	243	13	-0.28615158263129
19	244	13.1	-0.95829995963722
19	253	13.2	1.2025530398591
19	254	13.3	-1.1200473513687
19	255	13.4	0.73623359233606
19	256	13.5	0.13430569858755
19	257	13.6	0.19672552254052
19	258	13.7	-0.68278520298191
19	259	13.8	0.23638406642712
19	260	13.9	0.39060105714016
19	261	14	-0.34925419781358
19	262	14.1	-0.73071294517721
19	277	14.2	0.68136783805675
19	278	14.3	-0.38369613431859
19	279	14.4	0.83975727364885
19	280	14.5	-0.69471934894098
19	281	14.6	0.23244997980072
19	290	14.7	-0.57973777295556
19	291	14.8	0.23663119028789
19	292	14.9	0.073921910789796
19	293	15	-0.42101385798306
19	294	15.1	0.14434522828088
19	303	15.2	0.98694375241175
19	304	15.3	-1.0805903392844
19	305	15.4	0.80146523599979
19	306	15.5	-0.74373257246334
19	307	15.6	0.40355902672745
19	308	15.7	-0.012930372147828
19	309	15.8	0.22810378610156
19	310	15.9	-0.7377409796929
19	311	16	1.1515296916943
19	312	16.1	-0.85747692766599
19	333	16.2	-0.27344548625406
19	334	16.3	0.63134413091465
19	335	16.4	0.052933589974433
19	344	16.5	-0.27862214322669
19	345	16.6	-0.19633022721392
19	346	16.7	1.0301933380077
19	347	16.8	-1.0883818861097
19	348	16.9	0.45372255227994
19	349	17	0.32904314096085
19	364	17.1	0.14517206544989
19	379	17.2	0.16174122705124
19	380	17.3	-0.79741895715706
19	381	17.4	0.62725840320345
19	382	17.5	-0.58337242265697
19	383	17.6	0.30767691831571
19	384	17.7	-0.52359414072708
19	385	17.8	0.0021430449793058
19	386	17.9	0.44996980507859
19	387	18	-0.58610035525636
19	388	18.1	0.81555834184401
19	405	18.2	-0.26673444712069
19	406	18.3	0.17362958602607
19	407	18.4	-0.034241232834766
19	408	18.5	-0.26812062724494
19	409	18.6	-0.14820319395511
19	410	18.7	-0.26480566828978
19	411	18.8	0.8228551593842
19	412	18.9	-0.67782852856908
19	413	19	-0.28265719173941
19	422	19.1	0.1294433386065
19	423	19.2	-0.070284707378594
19	424	19.3	0.24886402615811
19	425	19.4	0.015318618970923
19	434	19.5	0.81298015646171
19	435	19.6	-0.81042257722002
19	436	19.7	0.49371758443304
19	437	19.8	0.037414867850014
19	438	19.9	-0.22970929620787
19	439	20	0.28015394564717
19	440	20.1	-0.71334530992898
19	467	20.2	0.2593034570571
19	468	20.3	0.14879085321445
19	469	20.4	0.43717253699434
19	470	20.5	-0.3028738439316
19	471	20.6	-0.67529939305969
19	472	20.7	0.27519379102159
19	473	20.8	0.54495947954711
19	474	20.9	0.057298362161955
19	475	21	-0.35138836852274
19	476	21.1	0.5195903284708
19	497	21.2	-0.95471393635961
19	498	21.3	0.98913263764697
19	507	21.4	-1.1503140074899
19	508	21.5	0.70685489957686
19	525	21.6	-0.24629497232381
19	526	21.7	-0.009825785970321
19	527	21.8	0.59398791999556
19	528	21.9	-0.97600473724304
19	529	22	1.1680209102109
19	530	22.1	-0.87125219274311
19	531	22.2	-0.18904261083808
19	532	22.3	0.26282503404655
19	533	22.4	0.45317505015991
19	534	22.5	-0.63005867023021
19	535	22.6	-0.26271136112046
19	536	22.7	0.46912108084653
19	537	22.8	0.37265358569567
19	538	22.9	0.39467344242148
19	539	23	-0.81166560249404
19	540	23.1	0.62487670273986
19	541	23.2	0.06775408540852
19	542	23.3	-0.73959203427657
19	543	23.4	0.58785591435154
19	544	23.5	0.028219058201646
19	561	23.6	0.019922702247275
19	562	23.7	-0.59848395443987
19	563	23.8	-0.036680774507118
19	572	23.9	0.15144647227135
19	573	24	0.044508685893376
19	574	24.1	0.51473830228206
19	583	24.2	-0.42022143127397
19	584	24.3	-0.19432208088691
19	585	24.4	0.14803836299107
19	586	24.5	0.38530666769947
19	587	24.6	-0.25293039930984
19	588	24.7	-0.68995965705254
19	597	24.8	0.2667054104386
19	598	24.9	-0.26995876405854
19	599	25	0.24529709289782
19	600	25.1	-0.1059543266194
19	615	25.2	0.20204402497038
19	616	25.3	0.42840676971247
19	617	25.4	-0.31912868130021
19	618	25.5	0.11639624403324
19	627	25.6	-0.3598133476684
19	628	25.7	0.38635906279087
19	629	25.8	-0.46747799606527
19	630	25.9	1.003657294414
19	631	26	-0.87314260690473
19	632	26.1	-0.33576605573762
19	641	26.2	1.1075256859884
19	650	26.3	-0.76333259651438
19	651	26.4	0.29540026863106
19	652	26.5	0.60166080754716
19	653	26.6	-1.1918487277813
19	654	26.7	0.93406193824485
19	655	26.8	0.19391059915069
19	676	26.9	-0.38017245733645
19	677	27	0.31360291764141
19	678	27.1	-0.74593236113433
19	687	27.2	0.73191555512603
19	696	27.3	-0.17093549151905
19	697	27.4	-0.69172040317207
19	698	27.5	0.26291091581808
19	699	27.6	0.58582859174347
19	708	27.7	-0.016451938846149
19	709	27.8	-0.24751734908204
19	710	27.9	-0.60833273560274
19	711	28	0.17135948482901
19	712	28.1	0.71849071097095
19	721	28.2	-0.89996398284566
19	722	28.3	0.45991134096402
19	723	28.4	-0.59281043580269
19	724	28.5	0.099394485144888
19	725	28.6	0.99484525313601
19	726	28.7	-0.010292489221317
19	727	28.8	-1.0532116235234
19	754	28.9	0.85041437796317
19	755	29	0.29413771384862
19	756	29.1	-0.15310139940119
19	771	29.2	0.044060110440469
19	772	29.3	-0.86472093453631
19	773	29.4	0.79976593600586
19	774	29.5	-0.0030994663480577
19	783	29.6	-0.55422367788852
19	784	29.7	-0.092185074882583
19	793	29.8	0.38517462513409
19	802	29.9	-0.56745213731192
19	803	30	0.075847172481005
19	812	30.1	0.69480566051789
19	821	30.2	-0.18930293153971
19	830	30.3	0.2395085192984
19	831	30.4	-0.72665654078591
19	832	30.5	0.86151898987591
19	833	30.6	-0.5535030259518
19	842	30.7	0.09208999739494
19	843	30.8	0.23306890740059
19	844	30.9	-0.46226765234023
19	845	31	0.7571830115281
19	860	31.1	-0.81268308649305
19	869	31.2	0.052731727645732
19	870	31.3	0.55705632197206
19	871	31.4	-0.11821192412173
19	872	31.5	-0.40428222632036
19	873	31.6	0.59111679561903
19	874	31.7	-0.6198239044752
19	883	31.8	0.77244375478475
19	884	31.9	-0.88811751324682
19	885	32	0.28609203067608
19	886	32.1	-0.62307277661748
19	901	32.2	0.8200357203139
19	902	32.3	-0.57238031078596
19	923	32.4	0.6158834303962
19	924	32.5	-0.35718920368236
19	925	32.6	0.72233457812109
19	926	32.7	-0.02222647687887
19	927	32.8	-0.27111636400223
19	928	32.9	-0.92169257742352
19	937	33	1.0438203780446
19	938	33.1	0.020835649711071
19	947	33.2	-0.13301832224242
19	948	33.3	-0.80652976825368
19	949	33.4	-0.059133014525283
19	950	33.5	1.0950058875373
19	951	33.6	-0.71717582587153
19	952	33.7	0.17607162571514
19	953	33.8	-0.29270722442307
19	954	33.9	0.45518942715134
19	963	34	-0.468008476682
19	964	34.1	0.79698733147234
19	973	34.2	-0.72320752947126
19	982	34.3	0.10499762648251
19	983	34.4	0.24213433801195
19	984	34.5	0.039622089127089
19	985	34.6	-0.63825405400712
19	986	34.7	0.7164027074119
19	987	34.8	-0.44534710003063
19	988	34.9	0.62300235119183
19	989	35	-0.63153285360896
19	1010	35.1	0.48862026287242
19	1031	35.2	-0.1207225879887
19	1040	35.3	0.33306187139823
19	1041	35.4	-1.1513766137883
19	1042	35.5	1.2298540113959
19	1043	35.6	-1.0469947973033
19	1044	35.7	1.0854213455692
19	1045	35.8	-0.431177338399
19	1062	35.9	-0.57742610624992
19	1077	36	0.88535068901257
19	1078	36.1	-0.66662475571501
19	1113	36.2	-0.2700007578591
19	1114	36.3	0.44398041793611
19	1115	36.4	0.45547407181003
19	1116	36.5	-0.12934568834027
19	1117	36.6	-0.23357209688983
19	1118	36.7	-0.11283514371607
19	1119	36.8	-0.34267530385405
19	1120	36.9	0.66099749321584
19	1121	37	-0.14659174224363
19	1122	37.1	-0.25682103624566
19	1131	37.2	0.54761009439826
19	1140	37.3	-0.12334849780892
19	1141	37.4	-0.90196402189321
19	1142	37.5	-0.0068749693222436
19	1143	37.6	0.31314085931518
19	1144	37.7	0.344269230403
19	1145	37.8	-0.29949071905575
19	1146	37.9	0.0032415936002472
19	1147	38	0.59950639693998
19	1148	38.1	-0.71160930667538
19	1171	38.2	0.20385180965532
19	1172	38.3	-0.18828766890801
19	1173	38.4	0.49906971368472
19	1174	38.5	-0.79636876587756
19	1175	38.6	0.60892132469453
19	1190	38.7	-0.6381991197355
19	1191	38.8	-0.017301471857358
19	1192	38.9	0.5900924347341
19	1193	39	0.0094406394986457
19	1194	39.1	0.66529003782199
19	1209	39.2	-0.63552320357413
19	1224	39.3	0.25274041383527
19	1225	39.4	-0.57261714141349
19	1234	39.5	-0.11636216894258
19	1235	39.6	0.40294334536883
19	1244	39.7	0.16249985350296
19	1245	39.8	-0.56677141974214
19	1246	39.9	0.68571396335029
19	1269	40	-0.74148953054101
19	1270	40.1	0.83871925191488
19	1291	40.2	-0.92093876085709
19	1292	40.3	0.71683667432517
19	1293	40.4	-0.054668471799229
19	1308	40.5	0.21057659923098
19	1309	40.6	-0.89511682072189
19	1310	40.7	0.41728672748693
19	1345	40.8	-3.633951741687
19	1346	40.9	-3.2583599133931
19	1363	41	-3.2343910862814
19	1364	41.1	-4.1242577714486
19	1397	41.2	-3.2784442987363
19	1398	41.3	-3.2379033311969
19	1399	41.4	-2.9178919841968
19	1400	41.5	-3.9025339555687
19	1409	41.6	-2.1898202316739
19	1410	41.7	-3.6483678187675
19	1411	41.8	-3.1421108139817
19	1426	41.9	-2.794450340954
19	1441	42	-3.3795990927108
19	1442	42.1	-2.8912345366885
19	1451	42.2	-3.3076209051864
19	1452	42.3	-3.9901139666681
19	1461	42.4	-2.4878757270993
19	1476	42.5	-3.4908257524845
19	1477	42.6	-2.1290577694818
19	1478	42.7	-2.8253938834488
19	1479	42.8	-2.7490894900169
19	1480	42.9	-3.4575089974801
19	1481	43	-2.7760421352821
19	1482	43.1	-2.0840731649332
19	1491	43.2	-2.8021727922262
19	1500	43.3	-2.7557278003744
19	1501	43.4	-3.4157981840567
19	1502	43.5	-2.0164003645958
19	1503	43.6	-2.4134723803381
19	1504	43.7	-2.6299050338461
19	1505	43.8	-2.6335903741973
19	1506	43.9	-1.5638604145412
19	1521	44	-2.8414543615295
19	1530	44.1	-1.725939567431
19	1565	44.2	-2.0020132872604
19	1566	44.3	-2.6141099974486
19	1575	44.4	2.6
19	1576	44.5	2.6
19	1577	44.6	2.6
19	1578	44.7	2.6
19	1579	44.8	2.6
19	1580	44.9	2.6
19	1581	45	2.6
19	1582	45.1	2.6
19	1611	45.2	2.6
19	1612	45.3	2.2841363279149
19	1613	45.4	1.8935127989156
19	1614	45.5	2.2392656711396
19	1623	45.6	2.0739214374451
19	1624	45.7	1.8283487363951
19	1633	45.8	1.3459498060401
19	1634	45.9	1.9348527940689
19	1635	46	1.9176560028223
19	1636	46.1	1.3355510365451
19	1665	46.2	2.2880548743531
19	1674	46.3	2.2896592276171
19	1683	46.4	1.5533061291091
19	1692	46.5	2.0906884460244
19	1701	46.6	1.623531357781
19	1710	46.7	2.3805483115837
19	1711	46.8	2.4334863333963
19	1712	46.9	1.911612272542
19	1713	47	1.521778156166
19	1714	47.1	2.4986043713288
19	1715	47.2	1.9113114000065
19	1716	47.3	2.2239782663295
19	1717	47.4	1.6526901599951
19	1718	47.5	1.5594712860649
19	1733	47.6	1.3538289614255
19	1734	47.7	1.4455569225596
19	1735	47.8	1.8653084654827
19	1736	47.9	1.8427843589801
19	1737	48	2.4431355789304
19	1738	48.1	2.1365051213652
19	1747	48.2	2.1996828689473
19	1794	48.3	1.4230278790463
19	1803	48.4	2.2727899308084
19	1836	48.5	1.7653733281652
19	1837	48.6	2.5887724337866
19	1838	48.7	1.4053038062062
19	1847	48.8	1.9895761335501
19	1870	48.9	1.9222675302066
19	1871	49	1.4739789363695
19	1872	49.1	1.9401765440591
19	1899	49.2	1.5739945462672
19	1908	49.3	2.0959014121676
19	1923	49.4	2.1538877822459
19	1944	49.5	0.71341151623109
19	1945	49.6	0.16412052363158
19	1954	49.7	-0.25610844376498
19	1955	49.8	-0.36960499347186
19	1956	49.9	-0.13195308868308
19	1957	50	0.26856301894878
19	1966	50.1	0.47871429943479
19	2007	50.2	-1.0143711611861
19	2028	50.3	0.47448180106004
19	2037	50.4	0.61669778686483
19	2052	50.5	-1.0263254529098
19	2053	50.6	0.41400700379164
19	2054	50.7	0.42228983237873
19	2063	50.8	0.23544167245273
19	2064	50.9	-0.82968515865504
19	2065	51	0.049877698626375
19	2066	51.1	0.32859358391724
19	2075	51.2	-0.54263115818612
19	2076	51.3	1.1161028062459
19	2077	51.4	-0.65643335732165
19	2078	51.5	0.53471078597941
19	2079	51.6	0.071617063460874
19	2080	51.7	-0.89963199452033
19	2081	51.8	-0.3288706403924
19	2096	51.9	0.97576851136981
19	2097	52	-0.51017195016611
19	2106	52.1	0.53286074022761
19	2149	52.2	-1.0087984921411
19	2166	52.3	0.10303679294884
19	2205	52.4	0.40705431173556
19	2206	52.5	-0.46056157201528
19	2207	52.6	0.030987501167683
19	2208	52.7	0.96121140641626
19	2209	52.8	0.052735606790524
19	2210	52.9	-0.4203399237711
19	2211	53	-0.39660070270767
19	2220	53.1	0.18355688233861
19	2247	53.2	0.036460113339132
19	2282	53.3	0.52209419505671
19	2283	53.4	-0.5639422991546
19	2316	53.5	-0.33982291202991
19	2317	53.6	0.61446454783436
19	2318	53.7	-0.64625478831585
19	2319	53.8	0.34326114249415
19	2320	53.9	0.23111253930255
19	2335	54	-0.10900386532303
19	2336	54.1	0.68623879868538
19	2395	54.2	-0.93742335462013
19	2416	54.3	0.82047697696837
19	2417	54.4	-0.046402609022351
19	2432	54.5	-0.062394597101942
19	2433	54.6	-0.67912497350481
19	2448	54.7	0.36352484293747
19	2449	54.8	0.37713251207023
19	2464	54.9	-0.18466903399675
19	2473	55	-0.51412875503303
19	2474	55.1	0.49307580026799
19	2475	55.2	-0.15539943794719
19	2508	55.3	0.081377907353453
19	2509	55.4	-0.11279032137246
19	2510	55.5	-0.065869759651829
19	2511	55.6	0.19405324307735
19	2512	55.7	0.28881068462507
19	2521	55.8	-0.32909462407698
19	2522	55.9	-0.30684404540807
19	2523	56	0.58843294288964
19	2524	56.1	-0.5843728942331
19	2581	56.2	0.16944002248346
19	2582	56.3	-0.031239423411886
19	2591	56.4	-0.25287382754032
19	2592	56.5	0.34158188898582
19	2593	56.6	0.30520866534207
19	2594	56.7	-0.9978278563125
19	2639	56.8	1.2732444499619
19	2640	56.9	-1.2730967349373
19	2669	57	0.50681205082219
19	2670	57.1	0.1621232680278
19	2697	57.2	-0.57990805427544
19	2698	57.3	0.080152439628716
19	2713	57.4	0.14097281312571
19	2722	57.5	0.2068060099613
19	2737	57.6	-0.5194714258425
19	2738	57.7	0.57209560982884
19	2747	57.8	-0.39647334017792
19	2776	57.9	0.21226839215961
19	2777	58	0.26940422251354
19	2800	58.1	-0.18779872353187
19	2849	58.2	0.6480080361478
19	2864	58.3	-0.43720927536487
19	2865	58.4	-0.036682713776841
19	2866	58.5	0.33064106923995
19	2875	58.6	-0.4976220822893
19	2876	58.7	0.45660155874211
19	2885	58.8	0.14477215940133
19	2886	58.9	-0.878804337373
19	2921	59	0.34134457982145
19	2922	59.1	0.049045205279263
19	2951	59.2	0.41296928140801
19	2952	59.3	-0.87706361685415
19	2953	59.4	0.78506326202769
19	2954	59.5	-0.33065543472766
19	2955	59.6	-0.42208279664628
19	2970	59.7	0.9589083730476
19	2971	59.8	-0.96021754264367
19	2972	59.9	0.28321268309373
19	2973	60	0.057126015657563
19	3006	60.1	0.28429968478159
19	3033	60.2	-0.17776030467358
19	3048	60.3	0.022298723529097
19	3049	60.4	-0.2105342322262
19	3072	60.5	0.73495486718603
19	3073	60.6	-0.18633040185087
19	3088	60.7	-0.77035234728829
19	3089	60.8	0.4557143202983
19	3090	60.9	-0.02040076779668
19	3091	61	-0.027946972032087
19	3100	61.1	-0.050543264648866
19	3101	61.2	0.18588589986321
19	3102	61.3	0.18452896678355
19	3111	61.4	-0.2069760745624
19	3128	61.5	0.06801624670624
19	3129	61.6	-0.67294646927621
19	3130	61.7	1.028739388776
19	3163	61.8	-0.82381925913504
19	3212	61.9	0.76040305371862
19	3245	62	-0.26407720660792
19	3246	62.1	0.43863664052916
19	3261	62.2	-0.54113861757797
19	3276	62.3	-0.28912568474189
19	3277	62.4	-0.16950694620609
19	3278	62.5	0.99122039421928
19	3287	62.6	-0.095510774734429
19	3302	62.7	-0.75294372828212
19	3303	62.8	0.23668047594837
19	3304	62.9	0.53467142882292
19	3305	63	-0.83431478084531
19	3306	63.1	0.35210798135958
19	3359	63.2	-0.094440052681595
19	3380	63.3	-0.4473309596302
19	3389	63.4	1.0887463964755
19	3462	63.5	-0.048878404474824
19	3491	63.6	-0.84011626616121
19	3492	63.7	-0.22759845333638
19	3521	63.8	0.96523234066552
19	3522	63.9	-0.88319159322417
19	3523	64	1.0127087845001
19	3524	64.1	-1.0276620371267
19	3591	64.2	0.61431956540329
19	3606	64.3	0.21428413968533
19	3607	64.4	-0.31382641461677
19	3628	64.5	0.57067821493838
19	3637	64.6	-0.60914532714524
19	3638	64.7	0.36459464333019
19	3639	64.8	-0.73943925965576
19	3666	64.9	-0.0042973342118913
19	3667	65	0.85692086636556
19	3688	65.1	-0.21112365035806
19	3715	65.2	0.36086973177735
19	3736	65.3	-0.75985120632685
19	3757	65.4	0.3137860695133
19	3772	65.5	-0.72754509830848
19	3773	65.6	0.75272121895104
19	3774	65.7	0.29683923490811
19	3845	65.8	-0.13905026647262
19	3846	65.9	-0.71397007803899
19	3861	66	-0.09170808081981
19	3876	66.1	0.41212117886172
19	3891	66.2	-0.60098572284915
19	3892	66.3	0.334280230687
19	3893	66.4	-0.10969557864591
19	3902	66.5	0.6595842471579
19	3903	66.6	-0.90330157196149
19	3924	66.7	1.0451128333574
19	3939	66.8	-0.4904354417231
19	3940	66.9	0.66181644496973
19	3941	67	-0.91171907340176
19	3942	67.1	-0.060383373429076
19	3989	67.2	0.26106328666211
19	4004	67.3	0.39537522469182
19	4025	67.4	-0.59560241485016
19	4026	67.5	0.68305471516215
19	4089	67.6	-0.38208423766774
19	4098	67.7	0.33824983618688
19	4099	67.8	0.15409351338167
19	4120	67.9	-0.40180133858231
19	4153	68	0.25139747092036
19	4154	68.1	0.13766139340586
19	4155	68.2	-0.33881677973548
19	4204	68.3	0.46489438514691
19	4205	68.4	-0.14217162111308
19	4206	68.5	-0.34962769050617
19	4207	68.6	0.05035532407927
19	4216	68.7	-0.56687722268979
19	4217	68.8	0.23361117648893
19	4218	68.9	0.4548261202406
19	4233	69	-0.88265868572051
19	4248	69.1	1.0851804644801
19	4289	69.2	-0.56637936339248
19	4330	69.3	0.14371087732725
19	4331	69.4	0.43668267510366
19	4346	69.5	-0.92674126923084
19	4347	69.6	0.58067676359787
19	4348	69.7	0.43665714859964
19	4369	69.8	-0.02113905174193
19	4370	69.9	-0.36864441933576
19	4379	70	-0.68281367758756
19	4380	70.1	0.72051779930481
19	4415	70.2	-0.7905666467501
19	4416	70.3	0.20636872719043
19	4417	70.4	0.68718973398207
19	4418	70.5	-0.27259107888675
19	4427	70.6	-0.4181942139985
19	4428	70.7	0.044375127507372
19	4429	70.8	0.54264241727068
19	4458	70.9	0.095856266515337
19	4499	71	-0.024657713621856
19	4540	71.1	-0.093092740583245
19	4573	71.2	0.20344424792565
19	4574	71.3	0.0075506433378969
19	4633	71.4	-0.14836843020749
19	4634	71.5	0.27863112979103
19	4635	71.6	-0.099059932818637
19	4636	71.7	-1.0236613981658
19	4645	71.8	0.73317319378257
19	4646	71.9	0.12147365380079
19	4647	72	-0.51524066727143
19	4662	72.1	0.70998090277426
19	4663	72.2	-0.43990983904806
19	4664	72.3	0.2660691931611
19	4691	72.4	-0.29090408436023
19	4712	72.5	-0.58564914709423
19	4767	72.6	0.15311355169397
19	4768	72.7	1.0522758624749
19	4777	72.8	-0.22061822346876
19	4806	72.9	-0.022966347774496
19	4833	73	-0.53962040941697
19	4866	73.1	0.60165208037942
19	4887	73.2	-0.028965901629991
19	4948	73.3	-0.85960978413933
19	4949	73.4	0.36310391880107
19	4964	73.5	0.20218158871867
19	4965	73.6	-0.57022643168457
19	4966	73.7	0.5233832231257
19	4967	73.8	-0.43841159958392
19	4968	73.9	0.84327159237583
19	4977	74	0.14540697254706
19	4978	74.1	-0.9650015578838
19	4979	74.2	0.39268933099228
19	5020	74.3	-0.26526850813534
19	5029	74.4	0.74486261734274
19	5030	74.5	-4.0276038161584
19	5031	74.6	-3.1839159485311
19	5032	74.7	-3.6230981861377
19	5053	74.8	-3.2572552160317
19	5062	74.9	-2.9318042017209
19	5123	75	-3.0004625670424
19	5125	75.1	-3.2939533882196
19	5160	75.2	-4.0252779244
19	5181	75.3	-3.1848829936094
19	5182	75.4	-3.1658058315283
19	5221	75.5	-2.5004115594559
19	5222	75.6	-4.3207747183105
19	5239	75.7	-2.7311453148505
19	5240	75.8	-3.0322779561619
19	5241	75.9	-3.405499173095
19	5250	76	-3.0952454301609
19	5251	76.1	-2.0063686489477
19	5292	76.2	-3.9722257370292
19	5293	76.3	-3.1240373128491
19	5320	76.4	-2.5748298423901
19	5353	76.5	-3.1123042678665
19	5374	76.6	-2.8752386964989
19	5375	76.7	-2.2681758043163
19	5390	76.8	-2.8967124088923
19	5399	76.9	-3.0448272561382
19	5408	77	-2.39261535024
19	5449	77.1	-2.2552386885127
19	5496	77.2	-2.3617714832017
19	5497	77.3	-2.2917650580488
19	5498	77.4	-3.54510674997
19	5519	77.5	-1.6438928837125
19	5520	77.6	-3.0023476744057
19	5559	77.7	-1.893904885125
19	5592	77.8	-1.8596784718761
19	5593	77.9	-2.2955861845682
19	5594	78	-2.0994936064503
19	5595	78.1	-1.8192975359751
19	5596	78.2	-2.8345957640907
19	5597	78.3	-1.2762899585193
19	5650	78.4	-2.3796511598979
19	5651	78.5	-1.6278795776701
19	5660	78.6	-1.3404669062286
19	5693	78.7	-1.5177075594234
19	5732	78.8	-1.4148377109645
19	5733	78.9	-1.4431746580866
19	5748	79	-0.79300716046722
19	5765	79.1	-1.8400793064877
19	5820	79.2	-0.70024596139537
19	5821	79.3	-1.559568619467
19	5822	79.4	-0.90880024634327
19	5823	79.5	-0.77497927619349
19	5824	79.6	-1.5087653012651
19	5847	79.7	-0.83649728180796
19	5856	79.8	-0.65681387314243
19	5865	79.9	-0.81315403146921
19	5880	80	-0.52786275957181
19	5881	80.1	-0.80418915036122
19	5924	80.2	-0.63985272439399
19	5925	80.3	-0.72039173876288
19	5934	80.4	-0.33468033651801
19	5955	80.5	-0.4693027641037
19	6030	80.6	2.6
19	6057	80.7	2.6
19	6072	80.8	2.6
19	6113	80.9	2.6
19	6156	81	2.6
19	6157	81.1	2.4351295707159
19	6172	81.2	2.4432221735702
19	6193	81.3	1.9038755571425
19	6240	81.4	1.6261818748666
19	6241	81.5	2.1049919558223
19	6242	81.6	2.4666923860554
19	6257	81.7	1.6362340402324
19	6310	81.8	1.3787684127688
19	6311	81.9	1.5629760395037
19	6312	82	2.5353775894036
19	6333	82.1	2.5300416562473
19	6374	82.2	1.8832828748273
19	6375	82.3	1.9351018632529
19	6376	82.4	2.336109959404
19	6423	82.5	1.9833863705397
19	6424	82.6	1.530118185794
19	6445	82.7	1.8811343897833
19	6446	82.8	2.5732702101348
19	6447	82.9	2.5342348564882
19	6462	83	2.5693844357505
19	6463	83.1	2.0149045142578
19	6492	83.2	1.3725787541829
19	6493	83.3	1.8807461508317
19	6494	83.4	2.0334636580665
19	6495	83.5	2.5097773310728
19	6528	83.6	2.3462556582876
19	6529	83.7	1.8940058123088
19	6530	83.8	1.4584949576529
19	6531	83.9	1.8650461803889
19	6564	84	1.5579446576536
19	6565	84.1	2.291856862721
19	6592	84.2	1.8759150201455
19	6601	84.3	1.3278917141957
19	6648	84.4	1.6947661947226
19	6663	84.5	2.1234659697162
19	6664	84.6	1.3687864772975
19	6693	84.7	1.547796370252
19	6762	84.8	2.4330980181694
19	6777	84.9	1.455991375586
19	6792	85	2.4590011724504
19	6801	85.1	2.3380120297661
19	6802	85.2	1.3183096045628
19	6861	85.3	2.1541156099643
19	6862	85.4	1.5928911172552
19	6901	85.5	2.5500120844459
19	6942	85.6	1.47958229715
19	6957	85.7	1.6892494342756
19	6966	85.8	1.3823235197226
19	6967	85.9	1.9552532619098
19	6968	86	2.1320560473949
19	6996	86.1	1.3075597830582
19	6997	86.2	1.5098471408244
19	7026	86.3	1.9322203714866
19	7047	86.4	1.7031571947271
19	7088	86.5	2.3084641489666
19	7173	86.6	1.9942861014977
19	7174	86.7	1.5262957822764
19	7195	86.8	2.4131978092715
19	7196	86.9	1.7242010836257
19	7197	87	2.201797786192
19	7212	87.1	1.3564851652598
19	7233	87.2	2.1932060035178
19	7268	87.3	2.1981788591947
19	7289	87.4	2.1956214122241
19	7322	87.5	2.0245592888445
19	7323	87.6	2.1531340652611
19	7362	87.7	2.4163697398966
19	7383	87.8	1.3840469184797
19	7404	87.9	1.873473607609
19	7405	88	2.2927729510935
19	7406	88.1	1.5099273201078
19	7473	88.2	1.6978287580423
19	7474	88.3	2.0996333138086
19	7495	88.4	1.6376260575373
19	7496	88.5	1.4861557398457
19	7531	88.6	1.4824374140008
19	7552	88.7	2.2569090325851
19	7627	88.8	1.3552710474236
19	7628	88.9	2.1922125286888
19	7629	89	1.5351785117062
19	7630	89.1	2.1386671828106
19	7651	89.2	2.1145416445099
19	7652	89.3	2.4488650724525
19	7653	89.4	2.4043925392442
19	7654	89.5	2.4879530545557
19	7655	89.6	1.3163182727061
19	7762	89.7	1.6848818238592
19	7783	89.8	1.4083246774972
19	7784	89.9	2.4852427536622
19	7839	90	1.9623522173381
19	7878	90.1	1.799591526459
19	7895	90.2	1.7507770049852
19	7924	90.3	1.8984856403666
19	7939	90.4	2.4066499399953
19	7948	90.5	2.2541105991928
19	7957	90.6	1.8461893827422
19	7996	90.7	1.8870203866391
19	7997	90.8	2.5141852375586
19	8012	90.9	1.6093229076127
19	8013	91	1.3630574931856
19	8014	91.1	2.1000632266281
19	8015	91.2	2.4133916635998
[...]
303	19397	138.5	4682.0995954445
303	19420	138.6	4681.6210542902
303	19455	138.7	4681.1430120711
303	19584	138.8	4680.6656062744
303	19663	138.9	4680.1868769437
303	19680	139	4679.709732197
303	19709	139.1	4679.2314789322
303	19710	139.2	4678.7534776202
303	19711	139.3	4678.2747270107
303	19712	139.4	4677.7960970153
303	19713	139.5	4677.3181904887
303	19734	139.6	4676.8398871083
303	19763	139.7	4676.3627616072
303	19764	139.8	4675.8848072467
303	19791	139.9	4675.4060561274
303	19792	140	4674.9282551298
303	19794	140.1	4674.4500550668
303	19795	140.2	4673.9711309437
303	19796	140.3	4673.4938401045
303	19843	140.4	4673.0163133135
303	19914	140.5	4672.5378910547
303	19999	140.6	4672.0594475504
303	20000	140.7	4671.5812534942
303	20001	140.8	4671.1038413675
303	20028	140.9	4670.6264110806
303	20089	141	4670.1478682434
303	20152	141.1	4669.6706784123
303	20153	141.2	4669.1936449811
303	20242	141.3	4668.7165207272
303	20243	141.4	4668.2395195877
303	20244	141.5	4667.7606887745
303	20245	141.6	4667.2824555032
303	20290	141.7	4666.8038253407
303	20291	141.8	4666.3262382354
303	20418	141.9	4665.8484391131
303	20457	142	4665.3706490065
303	20554	142.1	4664.8943890606
303	20589	142.2	4664.4241521973
303	20642	142.3	4663.9537112729
303	20675	142.4	4663.483496414
303	20704	142.5	4663.013648003
303	20771	142.6	4662.5425936948
303	20772	142.7	4662.0723139909
303	20819	142.8	4661.6027367845
303	20820	142.9	4661.1325679325
303	20829	143	4660.6620592882
303	20898	143.1	4660.1913096684
303	20963	143.2	4659.7213836801
303	20990	143.3	4659.2510398101
303	21007	143.4	4658.779925032
303	21008	143.5	4658.3088386641
303	21047	143.6	4657.8384399185
303	21092	143.7	4657.3674154281
303	21093	143.8	4656.8967989542
303	21094	143.9	4656.4265266207
303	21095	144	4655.9557337012
303	21116	144.1	4655.4862407823
303	21117	144.2	4655.0163110633
303	21138	144.3	4654.5457023884
303	21193	144.4	4654.0746069804
303	21266	144.5	4653.603639426
303	21349	144.6	4653.1329621176
303	21426	144.7	4652.6619020958
303	21447	144.8	4652.1907475906
303	21462	144.9	4651.7208732081
303	21483	145	4651.2502418584
303	21484	145.1	4650.7803351959
303	21517	145.2	4650.310711315
303	21518	145.3	4649.840326069
303	21519	145.4	4649.3691376998
303	21520	145.5	4648.8987508301
303	21559	145.6	4648.4279214261
303	21694	145.7	4647.9577053316
303	21759	145.8	4647.4882956612
303	21760	145.9	4647.0180429533
303	21761	146	4646.5469329141
303	21810	146.1	4646.0767456672
303	21831	146.2	4645.60717698
303	21878	146.3	4645.1377051265
303	21879	146.4	4644.6669293495
303	21888	146.5	4644.1973477766
303	21929	146.6	4643.7274114742
303	21944	146.7	4643.2562990428
303	21945	146.8	4642.7866938742
303	21998	146.9	4642.315992527
303	22031	147	4641.8466439903
303	22120	147.1	4641.3764583214
303	22121	147.2	4640.906744424
303	22122	147.3	4640.4356753449
303	22187	147.4	4639.964822797
303	22246	147.5	4639.4944746859
303	22263	147.6	4639.0238397277
303	22264	147.7	4638.5537367032
303	22341	147.8	4638.0836497394
303	22342	147.9	4637.6137191995
303	22343	148	4637.1442754162
303	22353	148.1	4636.6735981803
303	22362	148.2	4636.2034773593
303	22363	148.3	4635.7323153303
303	22364	148.4	4635.2548856026
303	22365	148.5	4634.775326498
303	22366	148.6	4634.2963223177
303	22437	148.7	4633.8173311086
303	22458	148.8	4633.337491551
303	22535	148.9	4632.8582577944
303	22556	149	4632.3794758811
303	22591	149.1	4631.9011012727
303	22592	149.2	4631.4227450437
303	22601	149.3	4630.9438769916
303	22634	149.4	4630.4641124304
303	22649	149.5	4629.9854606843
303	22682	149.6	4629.5061624394
303	22721	149.7	4629.0281251313
303	22722	149.8	4628.5499064008
303	22731	149.9	4628.0705778131
303	22802	150	4627.5908241458
303	22951	150.1	4627.1119683107
303	22992	150.2	4626.6321418746
303	23089	150.3	4626.1531801438
303	23180	150.4	4625.6733191328
303	23201	150.5	4625.1936389147
303	23202	150.6	4624.7141713257
303	23217	150.7	4624.2344423505
303	23232	150.8	4623.7562026718
303	23265	150.9	4623.27690888
303	23280	151	4622.7979603372
303	23281	151.1	4622.3198841937
303	23314	151.2	4621.8405119443
303	23315	151.3	4621.3620702414
303	23336	151.4	4620.8836531432
303	23337	151.5	4620.4046166141
303	23338	151.6	4619.9256436434
303	23427	151.7	4619.4471392976
303	23540	151.8	4618.9675101042
303	23563	151.9	4618.4882189759
303	23592	152	4618.0086733845
303	23593	152.1	4617.5291883474
303	23602	152.2	4617.0509333754
303	23623	152.3	4616.5729840777
303	23624	152.4	4616.0939282506
303	23633	152.5	4615.6157758379
303	23634	152.6	4615.1359588615
303	23695	152.7	4614.6562816571
303	23696	152.8	4614.1768611427
303	23697	152.9	4613.6974244925
303	23756	153	4613.2191489405
303	23783	153.1	4612.7408308744
303	23784	153.2	4612.2617811929
303	23799	153.3	4611.7830513999
303	23800	153.4	4611.3047320568
303	23821	153.5	4610.8267413382
303	23874	153.6	4610.3478060316
303	23927	153.7	4609.8684296893
303	23960	153.8	4609.3904423189
303	24011	153.9	4608.9116993514
303	24056	154	4608.4321194999
303	24058	154.1	4607.954111572
303	24059	154.2	4607.4756251578
303	24060	154.3	4606.9969132882
303	24093	154.4	4606.5187342523
303	24094	154.5	4606.0397250924
303	24115	154.6	4605.5671287912
303	24116	154.7	4605.1223507232
303	24175	154.8	4604.6768204612
303	24190	154.9	4604.2327738637
303	24253	155	4603.7882793303
303	24262	155.1	4603.3437166054
303	24303	155.2	4602.8981030514
303	24304	155.3	4602.4534958474
303	24305	155.4	4602.0079105997
303	24306	155.5	4601.5624158154
303	24333	155.6	4601.1174094187
303	24398	155.7	4600.6718961606
303	24485	155.8	4600.2266938919
303	24526	155.9	4599.7813858111
303	24547	156	4599.3359459104
303	24548	156.1	4598.8910412359
303	24607	156.2	4598.4454735121
303	24608	156.3	4598.0015026119
303	24675	156.4	4597.5576685038
303	24676	156.5	4597.1130137359
303	24677	156.6	4596.6680004553
303	24710	156.7	4596.2238776646
303	24711	156.8	4595.7794272484
303	24712	156.9	4595.3346793458
303	24733	157	4594.8898349224
303	24766	157.1	4594.4453785905
303	24775	157.2	4594.0014515039
303	24784	157.3	4593.5572086169
303	24799	157.4	4593.112763151
303	24896	157.5	4592.6684710993
303	24897	157.6	4592.2233936298
303	24918	157.7	4591.7787111083
303	25035	157.8	4591.3338176808
303	25094	157.9	4590.8884116247
303	25219	158	4590.442984885
303	25252	158.1	4589.9987963143
303	25305	158.2	4589.5531475098
303	25338	158.3	4589.1085656216
303	25365	158.4	4588.6639911963
303	25442	158.5	4588.2184448271
303	25443	158.6	4587.7736153031
303	25452	158.7	4587.3283639432
303	25509	158.8	4586.8835958326
303	25518	158.9	4586.4385900851
303	25533	159	4585.9937974084
303	25534	159.1	4585.5491243627
303	25535	159.2	4585.1049592826
303	25536	159.3	4584.6594433094
303	25557	159.4	4584.2152561436
303	25558	159.5	4583.7712958199
303	25559	159.6	4583.3258659002
303	25560	159.7	4582.881063317
303	25593	159.8	4582.4367147184
303	25594	159.9	4581.9919312154
303	25627	160	4581.546313014
303	25628	160.1	4581.0991364889
303	25655	160.2	4580.5516919503
303	25702	160.3	4580.0042802296
303	25703	160.4	4579.4566334974
303	25744	160.5	4578.9086646491
303	25777	160.6	4578.361435449
303	25778	160.7	4577.8127955939
303	25779	160.8	4577.2641880411
303	25780	160.9	4576.7161651813
303	25889	161	4576.1684068158
303	25924	161.1	4575.6202420329
303	25925	161.2	4575.0731699804
303	25990	161.3	4574.5257024062
303	26055	161.4	4573.9784872407
303	26128	161.5	4573.4310767939
303	26177	161.6	4572.8837491192
303	26198	161.7	4572.3364428298
303	26199	161.8	4571.7882100217
303	26250	161.9	4571.2402559464
303	26251	162	4570.6913710381
303	26278	162.1	4570.1431689619
303	26305	162.2	4569.5947552588
303	26306	162.3	4569.045555924
303	26339	162.4	4568.4973487386
303	26394	162.5	4567.949140323
303	26459	162.6	4567.4001462084
303	26474	162.7	4566.8518137684
303	26507	162.8	4566.3042170736
303	26540	162.9	4565.7569325663
303	26549	163	4565.2081606941
303	26572	163.1	4564.6600533147
303	26609	163.2	4564.1114138811
303	26610	163.3	4563.5779041467
303	26639	163.4	4563.1259465546
303	26710	163.5	4562.662662566
303	26711	163.6	4562.1993157725
303	26732	163.7	4561.7371394548
303	26733	163.8	4561.2752297774
303	26734	163.9	4560.8134390993
303	26767	164	4560.3513767039
303	26796	164.1	4559.8880557302
303	26797	164.2	4559.4257805275
303	26838	164.3	4558.9630605094
303	26839	164.4	4558.5003147271
303	26854	164.5	4558.0381248256
303	26881	164.6	4557.5755421579
303	26882	164.7	4557.1121926811
303	26949	164.8	4556.6502780107
303	26950	164.9	4556.1879255241
303	26951	165	4555.7259340535
303	26992	165.1	4555.2627811292
303	26993	165.2	4554.7992087149
303	27016	165.3	4554.3370717237
303	27017	165.4	4553.8737916724
303	27018	165.5	4553.4110733882
303	27019	165.6	4552.9487873538
303	27020	165.7	4552.4860258572
303	27077	165.8	4552.0241482101
303	27116	165.9	4551.5614677669
303	27131	166	4551.0992495248
303	27132	166.1	4550.636870466
303	27133	166.2	4550.1735402331
303	27142	166.3	4549.7106276672
303	27143	166.4	4549.2473896973
303	27188	166.5	4548.7844129528
303	27189	166.6	4548.3214631315
303	27204	166.7	4547.8583940875
303	27205	166.8	4547.3956448087
303	27260	166.9	4546.9335125807
303	27293	167	4546.4701628477
303	27374	167.1	4546.0067078454
303	27499	167.2	4545.5431829581
303	27584	167.3	4545.0809397017
303	27687	167.4	4544.6180803506
303	27702	167.5	4544.1561175437
303	27759	167.6	4543.6941181953
303	27798	167.7	4543.2321953484
303	27807	167.8	4542.7689308498
303	27840	167.9	4542.3071900669
303	27855	168	4541.843940512
303	27856	168.1	4541.3814456816
303	27857	168.2	4540.918842957
303	27858	168.3	4540.4565541665
303	27859	168.4	4539.9930967236
303	27898	168.5	4539.5297442439
303	27955	168.6	4539.0679341374
303	27956	168.7	4538.6044483213
303	27989	168.8	4538.141576187
303	28050	168.9	4537.6780158458
303	28065	169	4537.2153548579
303	28080	169.1	4536.7529501494
303	28113	169.2	4536.2894634873
303	28152	169.3	4535.827032036
303	28153	169.4	4535.3637236578
303	28154	169.5	4534.9007075755
303	28193	169.6	4534.4376001485
303	28226	169.7	4533.9744273655
303	28261	169.8	4533.512702866
303	28270	169.9	4533.0505508272
303	28285	170	4532.5873840459
303	28356	170.1	4532.1243306435
303	28357	170.2	4531.6608835359
303	28414	170.3	4531.1983232384
303	28415	170.4	4530.7355253509
303	28494	170.5	4530.273589624
303	28515	170.6	4529.8102871668
303	28524	170.7	4529.3473698953
303	28559	170.8	4528.8852813401
303	28560	170.9	4528.4224815294
303	28593	171	4527.9590451753
303	28594	171.1	4527.4965437326
303	28647	171.2	4527.0348120224
303	28682	171.3	4526.5717612447
303	28747	171.4	4526.1086810429
303	28748	171.5	4525.646638846
303	28795	171.6	4525.1843227239
303	28848	171.7	4524.7221605639
303	28849	171.8	4524.2588184009
303	28926	171.9	4523.7966173651
303	28959	172	4523.3348396272
303	28992	172.1	4522.8720254249
303	28993	172.2	4522.4093527513
303	28994	172.3	4521.9459149827
303	29009	172.4	4521.4832854089
303	29050	172.5	4521.0201244642
303	29071	172.6	4520.5571703551
303	29072	172.7	4520.0844440961
303	29125	172.8	4519.603192575
303	29172	172.9	4519.1233602416
303	29211	173	4518.6433659952
303	29226	173.1	4518.162437697
303	29267	173.2	4517.6813689333
303	29324	173.3	4517.2000851048
303	29333	173.4	4516.7193743317
303	29334	173.5	4516.2386219326
303	29367	173.6	4515.7580275259
303	29388	173.7	4515.2786047896
303	29403	173.8	4514.7985913347
303	29404	173.9	4514.3188349022
303	29425	174	4513.8390958752
303	29426	174.1	4513.358904754
303	29447	174.2	4512.8775417561
303	29518	174.3	4512.3974300181
303	29557	174.4	4511.9180397577
303	29628	174.5	4511.4385452017
303	29657	174.6	4510.9578928426
303	29710	174.7	4510.4777137119
303	29783	174.8	4509.9981105789
303	29818	174.9	4509.5183797795
303	29863	175	4509.038140333
303	29922	175.1	4508.5584307067
303	29931	175.2	4508.0789088714
303	29940	175.3	4507.5989841308
303	29969	175.4	4507.1183887468
303	30016	175.5	4506.6375762602
303	30017	175.6	4506.1570981992
303	30040	175.7	4505.6770176027
303	30041	175.8	4505.1974925204
303	30056	175.9	4504.7178506639
303	30057	176	4504.2377396132
303	30058	176.1	4503.7574592728
303	30059	176.2	4503.2760948904
303	30080	176.3	4502.7959863304
303	30095	176.4	4502.3147380837
303	30174	176.5	4501.8352126783
303	30231	176.6	4501.3555115354
303	30296	176.7	4500.8745742447
303	30297	176.8	4500.3949482298
303	30344	176.9	4499.914494887
303	30345	177	4499.4345538746
303	30402	177.1	4498.953649453
303	30403	177.2	4498.4723771915
303	30418	177.3	4497.9924349254
303	30439	177.4	4497.5126165221
303	30440	177.5	4497.0313628795
303	30441	177.6	4496.5519341353
303	30468	177.7	4496.0723033351
303	30469	177.8	4495.5920252059
303	30490	177.9	4495.1108021317
303	30491	178	4494.6307050435
303	30493	178.1	4494.1502629286
303	30494	178.2	4493.6699491248
303	30495	178.3	4493.1894271663
303	30540	178.4	4492.7096169666
303	30587	178.5	4492.2292042606
303	30634	178.6	4491.7483401231
303	30673	178.7	4491.2677157178
303	30694	178.8	4490.7883107554
303	30695	178.9	4490.3086321477
303	30710	179	4489.8279694341
303	30711	179.1	4489.3479508359
303	30768	179.2	4488.8672780276
303	30795	179.3	4488.3866699776
303	30812	179.4	4487.907200893
303	30867	179.5	4487.4260262447
303	30868	179.6	4486.9461422276
303	30869	179.7	4486.466004691
303	30884	179.8	4485.9848499849
303	30905	179.9	4485.5053240016
303	30938	180	4485.043818374
303	30939	180.1	4484.5832306328
303	30940	180.2	4484.1222175794
303	30969	180.3	4483.6605502783
303	31002	180.4	4483.1990082068
303	31135	180.5	4482.7383203059
303	31212	180.6	4482.2777631397
303	31241	180.7	4481.817329468
303	31268	180.8	4481.3556327194
303	31269	180.9	4480.8949104523
303	31270	181	4480.4334396466
303	31271	181.1	4479.9733516552
303	31312	181.2	4479.5124789633
303	31313	181.3	4479.0512051585
303	31328	181.4	4478.5895013623
303	31329	181.5	4478.1283100748
303	31330	181.6	4477.6679515089
303	31351	181.7	4477.2063049256
303	31372	181.8	4476.7459929549
303	31399	181.9	4476.2858432625
303	31426	182	4475.8249473656
303	31427	182.1	4475.3635962494
303	31454	182.2	4474.9025718138
303	31487	182.3	4474.4424346083
303	31544	182.4	4473.9809247146
303	31591	182.5	4473.52042622
303	31612	182.6	4473.0604442056
303	31613	182.7	4472.6002979472
303	31614	182.8	4472.139720875
303	31711	182.9	4471.6787861338
303	31712	183	4471.2186225562
303	31747	183.1	4470.7569247343
303	31768	183.2	4470.2962072951
303	31769	183.3	4469.8351523955
303	31770	183.4	4469.3736451011
303	31779	183.5	4468.9131428211
303	31836	183.6	4468.4523593393
303	31837	183.7	4467.9914453948
303	31902	183.8	4467.5310330787
303	31903	183.9	4467.0700717328
303	31904	184	4466.6093925562
303	31951	184.1	4466.1482545102
303	31998	184.2	4465.6865871593
303	32089	184.3	4465.2265238722
303	32146	184.4	4464.7659756982
303	32195	184.5	4464.3058984448
303	32236	184.6	4463.8449818427
303	32237	184.7	4463.3844375699
303	32266	184.8	4462.9233476988
303	32305	184.9	4462.4624252103
303	32338	185	4462.002024649
303	32359	185.1	4461.5413995262
303	32368	185.2	4461.0797752369
303	32389	185.3	4460.6185574878
303	32390	185.4	4460.1580263251
303	32405	185.5	4459.6975928915
303	32406	185.6	4459.2361895416
303	32427	185.7	4458.7746864824
303	32428	185.8	4458.3146154534
303	32451	185.9	4457.8541977023
303	32494	186	4457.3932468556
303	32495	186.1	4456.9326950971
303	32496	186.2	4456.4726348852
303	32497	186.3	4456.0125135753
303	32512	186.4	4455.5508990037
303	32547	186.5	4454.9956790776
303	32548	186.6	4454.4369736269
303	32563	186.7	4453.879181706
303	32564	186.8	4453.3202655984
303	32655	186.9	4452.762539621
303	32702	187	4452.2045066829
303	32717	187.1	4451.6472936207
303	32740	187.2	4451.0894097636
303	32767	187.3	4450.5314423375
303	32768	187.4	4449.9737959171
303	32769	187.5	4449.4145981641
303	32828	187.6	4448.8567233673
303	32887	187.7	4448.2990236693
303	32888	187.8	4447.7403074981
303	32889	187.9	4447.1817644796
303	32890	188	4446.6235952709
303	32911	188.1	4446.0663851874
303	32912	188.2	4445.5083917386
303	32975	188.3	4444.9509307998
303	32996	188.4	4444.3935088778
303	32997	188.5	4443.8349858953
303	32998	188.6	4443.2769564173
303	33045	188.7	4442.7179527648
303	33054	188.8	4442.1599399657
303	33089	188.9	4441.6010213703
303	33104	189	4441.0424971717
303	33167	189.1	4440.4847877394
303	33168	189.2	4439.9264210368
303	33215	189.3	4439.3681569031
303	33216	189.4	4438.8105165883
303	33217	189.5	4438.253251213
303	33308	189.6	4437.6944780248
303	33365	189.7	4437.1366360174
303	33394	189.8	4436.579112568
303	33597	189.9	4436.0207233417
303	33644	190	4435.4632922155
303	33701	190.1	4434.9061730179
303	33722	190.2	4434.34744501
303	33761	190.3	4433.7885961134
303	33762	190.4	4433.2313445045
303	33917	190.5	4432.6733544508
303	33918	190.6	4432.1148075041
303	33957	190.7	4431.5555782385
303	33958	190.8	4430.9976018417
303	33993	190.9	4430.438499243
303	33994	191	4429.8809427871
303	33995	191.1	4429.3223130886
303	33996	191.2	4428.7645980206
303	34005	191.3	4428.2059989328
303	34026	191.4	4427.6475919558
303	34047	191.5	4427.0887340875
303	34056	191.6	4426.4700494637
303	34179	191.7	4425.7533451158
303	34180	191.8	4425.0381762138
303	34181	191.9	4424.321206732
303	34182	192	4423.606550722
303	34215	192.1	4422.8910283593
303	34216	192.2	4422.1750356069
303	34243	192.3	4421.4589794396
303	34244	192.4	4420.7433035501
303	34245	192.5	4420.0264163999
303	34306	192.6	4419.3102093089
303	34307	192.7	4418.5933070919
303	34390	192.8	4417.876812403
303	34467	192.9	4417.1598551882
303	34468	193	4416.4445575997
303	34483	193.1	4415.7274805261
303	34510	193.2	4415.0125029293
303	34557	193.3	4414.2967140138
303	34586	193.4	4413.581380558
303	34587	193.5	4412.8650526634
303	34646	193.6	4412.1497150805
303	34673	193.7	4411.434152545
303	34688	193.8	4410.7172234361
303	34757	193.9	4410.0029825355
303	34758	194	4409.2869206979
303	34786	194.1	4408.5705815294
303	34813	194.2	4407.8544889819
303	34814	194.3	4407.1377671481
303	34815	194.4	4406.4224280796
303	34816	194.5	4405.7077385931
303	34817	194.6	4404.9925137508
303	34906	194.7	4404.2765792342
303	34907	194.8	4403.5594883388
303	34908	194.9	4402.8432100803
303	35009	195	4402.1263796762
303	35010	195.1	4401.4105119825
303	35011	195.2	4400.693454406
303	35012	195.3	4399.9784049184
303	35013	195.4	4399.2616823943
303	35056	195.5	4398.5447741329
303	35097	195.6	4397.8278790527
303	35132	195.7	4397.1137121357
303	35185	195.8	4396.3966745587
303	35186	195.9	4395.6819654249
303	35213	196	4394.96662104
303	35214	196.1	4394.431178122
303	35229	196.2	4393.7959067069
303	35230	196.3	4392.9188328127
303	35277	196.4	4392.0388554929
303	35278	196.5	4391.1606249262
303	35319	196.6	4390.2832341038
303	35320	196.7	4389.4054560831
303	35353	196.8	4388.527339957
303	35380	196.9	4387.6481210499
303	35381	197	4386.7710432308
303	35408	197.1	4385.891287294
303	35409	197.2	4385.0137638208
303	35462	197.3	4384.1357619713
303	35497	197.4	4383.2561776156
303	35518	197.5	4382.3773208735
303	35519	197.6	4381.4974251589
303	35520	197.7	4380.6188577378
303	35599	197.8	4379.7408979401
303	35626	197.9	4378.8630819004
303	35641	198	4377.9833967248
303	35758	198.1	4377.1058119391
303	35799	198.2	4376.2273960508
303	35898	198.3	4375.3474758345
303	35899	198.4	4374.4684882849
303	35900	198.5	4373.5883958348
303	35901	198.6	4372.7110194956
303	36052	198.7	4371.8319229503
303	36053	198.8	4370.9541863075
303	36082	198.9	4370.074805329
303	36145	199	4369.1946940107
303	36172	199.1	4368.3158708666
303	36315	199.2	4367.4358678835
303	36316	199.3	4366.5562913837
303	36317	199.4	4365.6778705869
303	36326	199.5	4364.7976621998
303	36371	199.6	4363.9193666543
303	36388	199.7	4363.0425688372
303	36477	199.8	4362.1646746646
303	36504	199.9	4361.2859957893
303	36505	200	4360.4066405858
303	36506	200.1	4359.5284049108
303	36507	200.2	4358.6511212371
303	36508	200.3	4357.7742454045
303	36535	200.4	4356.8969696202
303	36536	200.5	4356.018164915
303	36537	200.6	4355.1381098132
303	36572	200.7	4354.2599966952
303	36587	200.8	4353.3827495067
303	36596	200.9	4352.5059831491
303	36597	201	4351.6261551446
303	36598	201.1	4350.7467117251
303	36599	201.2	4349.8691296342
303	36684	201.3	4348.9920286897
303	36717	201.4	4348.1150007663
303	36738	201.5	4347.2381770995
