version 2
run General-0-20170416-03:55:56-11000
attr configname General
attr datetime 20170416-03:55:56
attr experiment General
attr inifile omnetpp.ini
attr iterationvars ""
attr iterationvars2 $repetition=0
attr measurement ""
attr network DVCastScenario
attr processid 11000
attr repetition 0
attr replication #0
attr resultdir results
attr runnumber 0
attr seedset 0
param **.coreDebug false
param **.debug false
param *.**.nic.mac1609_4.bitrate 18Mbps
param *.**.nic.mac1609_4.txPower 20mW
param *.**.nic.mac1609_4.useServiceChannel false
param *.**.nic.phy80211p.analogueModels "xmldoc(\"config.xml\")"
param *.**.nic.phy80211p.decider "xmldoc(\"config.xml\")"
param *.**.nic.phy80211p.sensitivity -89dBm
param *.**.nic.phy80211p.thermalNoise -110dBm
param *.**.nic.phy80211p.usePropagationDelay true
param *.**.nic.phy80211p.useThermalNoise true
param *.annotations.draw false
param *.connectionManager.alpha 2.0
param *.connectionManager.carrierFrequency "5.890e9 Hz"
param *.connectionManager.pMax 20mW
param *.connectionManager.sat -89dBm
param *.connectionManager.sendDirect true
param *.manager.autoShutdown true
param *.manager.host "\"localhost\""
param *.manager.launchConfig "xmldoc(\"uah.launchd.xml\")"
param *.manager.margin 25
param *.manager.moduleDisplayString "\"\""
param *.manager.moduleName "\"node\""
param *.manager.moduleType "\"org.car2x.veins.nodes.Car\""
param *.manager.port 9999
param *.manager.updateInterval 0.1s
param *.node[*0].veinsmobility.accidentCount 1
param *.node[*0].veinsmobility.accidentDuration 30s
param *.node[*0].veinsmobility.accidentStart 75s
param *.node[*].appl.beaconInterval 1s
param *.node[*].appl.beaconPriority 3
param *.node[*].appl.dataOnSch false
param *.node[*].appl.dataPriority 2
param *.node[*].appl.debug false
param *.node[*].appl.headerLength "256 bit"
param *.node[*].appl.maxOffset 0.005s
param *.node[*].appl.sendBeacons false
param *.node[*].appl.sendData true
param *.node[*].applType "\"DVCastLayer\""
param *.node[*].mobilityType "\"TraCIMobility\""
param *.node[*].mobilityType.debug true
param *.node[*].veinsmobility.x 0
param *.node[*].veinsmobility.y 0
param *.node[*].veinsmobility.z 1.895
param *.node[*].veinsmobilityType "\"org.car2x.veins.modules.mobility.traci.TraCIMobility\""
param *.node[*].veinsmobilityType.debug true
param *.playgroundSizeX 20000m
param *.playgroundSizeY 20000m
param *.playgroundSizeZ 5000m
param *.rsu[*].appl.beaconInterval 1s
param *.rsu[*].appl.beaconPriority 3
param *.rsu[*].appl.dataOnSch false
param *.rsu[*].appl.dataPriority 2
param *.rsu[*].appl.debug false
param *.rsu[*].appl.headerLength "256 bit"
param *.rsu[*].appl.maxOffset 0.005s
param *.rsu[*].appl.sendBeacons false
param *.rsu[*].appl.sendData true
param *.rsu[*].applType "\"TraCIDemoRSU11p\""
param *.rsu[0].mobility.x 2000
param *.rsu[0].mobility.y 2000
param *.rsu[0].mobility.z 3
param *.world.use2D false
param *.world.useTorus false

vector 4  DVCastScenario.node[0].veinsmobility  posx  ETV
vector 5  DVCastScenario.node[0].veinsmobility  posy  ETV
vector 6  DVCastScenario.node[0].veinsmobility  speed  ETV
vector 7  DVCastScenario.node[0].veinsmobility  acceleration  ETV
vector 8  DVCastScenario.node[0].veinsmobility  co2emission  ETV
vector 11  DVCastScenario.node[1].veinsmobility  posx  ETV
vector 12  DVCastScenario.node[1].veinsmobility  posy  ETV
vector 13  DVCastScenario.node[1].veinsmobility  speed  ETV
vector 14  DVCastScenario.node[1].veinsmobility  acceleration  ETV
vector 15  DVCastScenario.node[1].veinsmobility  co2emission  ETV
vector 18  DVCastScenario.node[2].veinsmobility  posx  ETV
vector 19  DVCastScenario.node[2].veinsmobility  posy  ETV
vector 20  DVCastScenario.node[2].veinsmobility  speed  ETV
vector 21  DVCastScenario.node[2].veinsmobility  acceleration  ETV
vector 22  DVCastScenario.node[2].veinsmobility  co2emission  ETV
vector 25  DVCastScenario.node[3].veinsmobility  posx  ETV
vector 26  DVCastScenario.node[3].veinsmobility  posy  ETV
vector 27  DVCastScenario.node[3].veinsmobility  speed  ETV
vector 28  DVCastScenario.node[3].veinsmobility  acceleration  ETV
vector 29  DVCastScenario.node[3].veinsmobility  co2emission  ETV
vector 32  DVCastScenario.node[4].veinsmobility  posx  ETV
vector 33  DVCastScenario.node[4].veinsmobility  posy  ETV
vector 34  DVCastScenario.node[4].veinsmobility  speed  ETV
vector 35  DVCastScenario.node[4].veinsmobility  acceleration  ETV
vector 36  DVCastScenario.node[4].veinsmobility  co2emission  ETV
vector 39  DVCastScenario.node[5].veinsmobility  posx  ETV
vector 40  DVCastScenario.node[5].veinsmobility  posy  ETV
vector 41  DVCastScenario.node[5].veinsmobility  speed  ETV
vector 42  DVCastScenario.node[5].veinsmobility  acceleration  ETV
vector 43  DVCastScenario.node[5].veinsmobility  co2emission  ETV
vector 46  DVCastScenario.node[6].veinsmobility  posx  ETV
vector 47  DVCastScenario.node[6].veinsmobility  posy  ETV
vector 48  DVCastScenario.node[6].veinsmobility  speed  ETV
vector 49  DVCastScenario.node[6].veinsmobility  acceleration  ETV
vector 50  DVCastScenario.node[6].veinsmobility  co2emission  ETV
vector 53  DVCastScenario.node[7].veinsmobility  posx  ETV
vector 54  DVCastScenario.node[7].veinsmobility  posy  ETV
vector 55  DVCastScenario.node[7].veinsmobility  speed  ETV
vector 56  DVCastScenario.node[7].veinsmobility  acceleration  ETV
vector 57  DVCastScenario.node[7].veinsmobility  co2emission  ETV
vector 60  DVCastScenario.node[8].veinsmobility  posx  ETV
vector 61  DVCastScenario.node[8].veinsmobility  posy  ETV
vector 62  DVCastScenario.node[8].veinsmobility  speed  ETV
vector 63  DVCastScenario.node[8].veinsmobility  acceleration  ETV
vector 64  DVCastScenario.node[8].veinsmobility  co2emission  ETV
vector 67  DVCastScenario.node[9].veinsmobility  posx  ETV
vector 68  DVCastScenario.node[9].veinsmobility  posy  ETV
vector 69  DVCastScenario.node[9].veinsmobility  speed  ETV
vector 70  DVCastScenario.node[9].veinsmobility  acceleration  ETV
vector 71  DVCastScenario.node[9].veinsmobility  co2emission  ETV
vector 74  DVCastScenario.node[10].veinsmobility  posx  ETV
vector 75  DVCastScenario.node[10].veinsmobility  posy  ETV
vector 76  DVCastScenario.node[10].veinsmobility  speed  ETV
vector 77  DVCastScenario.node[10].veinsmobility  acceleration  ETV
vector 78  DVCastScenario.node[10].veinsmobility  co2emission  ETV
vector 81  DVCastScenario.node[11].veinsmobility  posx  ETV
vector 82  DVCastScenario.node[11].veinsmobility  posy  ETV
vector 83  DVCastScenario.node[11].veinsmobility  speed  ETV
vector 84  DVCastScenario.node[11].veinsmobility  acceleration  ETV
vector 85  DVCastScenario.node[11].veinsmobility  co2emission  ETV
vector 88  DVCastScenario.node[12].veinsmobility  posx  ETV
vector 89  DVCastScenario.node[12].veinsmobility  posy  ETV
vector 90  DVCastScenario.node[12].veinsmobility  speed  ETV
vector 91  DVCastScenario.node[12].veinsmobility  acceleration  ETV
vector 92  DVCastScenario.node[12].veinsmobility  co2emission  ETV
vector 95  DVCastScenario.node[13].veinsmobility  posx  ETV
vector 96  DVCastScenario.node[13].veinsmobility  posy  ETV
vector 97  DVCastScenario.node[13].veinsmobility  speed  ETV
vector 98  DVCastScenario.node[13].veinsmobility  acceleration  ETV
vector 99  DVCastScenario.node[13].veinsmobility  co2emission  ETV
vector 102  DVCastScenario.node[14].veinsmobility  posx  ETV
vector 103  DVCastScenario.node[14].veinsmobility  posy  ETV
vector 104  DVCastScenario.node[14].veinsmobility  speed  ETV
vector 105  DVCastScenario.node[14].veinsmobility  acceleration  ETV
vector 106  DVCastScenario.node[14].veinsmobility  co2emission  ETV
vector 109  DVCastScenario.node[15].veinsmobility  posx  ETV
vector 110  DVCastScenario.node[15].veinsmobility  posy  ETV
vector 111  DVCastScenario.node[15].veinsmobility  speed  ETV
vector 112  DVCastScenario.node[15].veinsmobility  acceleration  ETV
vector 113  DVCastScenario.node[15].veinsmobility  co2emission  ETV
vector 116  DVCastScenario.node[16].veinsmobility  posx  ETV
vector 117  DVCastScenario.node[16].veinsmobility  posy  ETV
vector 118  DVCastScenario.node[16].veinsmobility  speed  ETV
vector 119  DVCastScenario.node[16].veinsmobility  acceleration  ETV
vector 120  DVCastScenario.node[16].veinsmobility  co2emission  ETV
57	166	8.3	1.4322324332167
57	167	8.4	1.5848146051446
57	168	8.5	1.7311677924583
57	169	8.6	1.9475075734934
57	170	8.7	1.890955267136
57	171	8.8	2.1907601332617
57	172	8.9	1.9530297438602
57	173	9	2.2422424944212
57	174	9.1	2.4891249907402
57	183	9.2	2.5682987670743
57	184	9.3	2.4537223335336
57	185	9.4	3.0533097437895
57	186	9.5	2.6220311326332
57	187	9.6	2.8907624968758
57	188	9.7	2.995773042105
57	189	9.8	3.2727776495947
57	190	9.9	3.8257908590443
57	191	10	2.6790308108025
57	192	10.1	2.8321315703029
57	213	10.2	3.8813545779175
57	214	10.3	3.4342693688961
57	215	10.4	3.3183294093905
57	216	10.5	3.7721458551293
57	217	10.6	3.1678017186055
57	218	10.7	4.2992214041557
57	219	10.8	3.7370020151127
57	220	10.9	4.1658730030846
57	221	11	4.7689056644772
57	222	11.1	3.6127880963103
57	223	11.2	4.7585592272302
57	224	11.3	5.6248304829749
57	225	11.4	4.9127844178178
57	226	11.5	5.161644880059
57	227	11.6	5.3856503419015
57	228	11.7	6.2216861941169
57	229	11.8	4.7316551155128
57	230	11.9	5.5756353572303
57	231	12	5.4106218279073
57	232	12.1	5.6632770102393
57	259	12.2	0.973
57	260	12.3	0.973
57	261	12.4	0.973
57	262	12.5	0.973
57	263	12.6	0.973
57	264	12.7	0.973
57	265	12.8	0.973
57	266	12.9	0.973
57	267	13	0.973
57	268	13.1	0.973
57	269	13.2	0.973
57	270	13.3	0.973
57	271	13.4	0.973
57	272	13.5	0.973
57	273	13.6	0.973
57	274	13.7	0.973
57	275	13.8	0.973
57	276	13.9	0.973
57	277	14	0.973
57	278	14.1	0.973
57	299	14.2	3.4974635621448
57	300	14.3	3.6738885400076
57	301	14.4	3.8504555920124
57	302	14.5	4.0271744600662
57	303	14.6	4.2040548860763
57	304	14.7	4.3811066119499
57	325	14.8	4.558339379594
57	326	14.9	4.735762930916
57	327	15	4.9133870078228
57	328	15.1	5.0420735628035
57	337	15.2	3.5647978266287
57	338	15.3	4.579350559826
57	339	15.4	3.6786349143516
57	340	15.5	5.5592116274665
57	341	15.6	4.4061310420778
57	342	15.7	4.2652396646935
57	343	15.8	5.9867303441301
57	344	15.9	4.8944545456203
57	345	16	4.7951364567955
57	346	16.1	5.4965648999016
57	373	16.2	6.5105598508206
57	374	16.3	5.5853524638325
57	375	16.4	6.2413418157711
57	376	16.5	5.1932511543859
57	377	16.6	4.4374173533528
57	378	16.7	5.4557673870001
57	379	16.8	6.3649405385164
57	380	16.9	6.2078791249274
57	381	17	6.8637421073262
57	382	17.1	7.2961318102055
57	415	17.2	6.1030750431693
57	416	17.3	7.8388935467733
57	417	17.4	6.7378009973078
57	418	17.5	7.085999548569
57	419	17.6	7.3078857183207
57	434	17.7	7.3250101216639
57	435	17.8	6.5045905413369
57	436	17.9	7.1096901069494
57	437	18	8.0247305775881
57	438	18.1	6.0794312560553
57	483	18.2	7.40184459745
57	484	18.3	6.145652869395
57	485	18.4	8.6459265408368
57	530	18.5	5.9418006543279
57	531	18.6	7.8701885974923
57	532	18.7	10.077416526834
57	533	18.8	6.2936430626995
57	534	18.9	9.6589542328253
57	535	19	8.6870823749252
57	536	19.1	10.215655921014
57	581	19.2	3.2388739923341
57	582	19.3	0.973
57	609	19.4	3.8728362066519
57	610	19.5	2.2354833478224
57	611	19.6	1.8034020040285
57	612	19.7	2.3899619096179
57	613	19.8	0.973
57	614	19.9	3.0888734557289
57	615	20	0.973
57	616	20.1	2.6770071251412
57	617	20.2	1.1780015558137
57	618	20.3	2.3665556617622
57	627	20.4	2.5868631661856
57	628	20.5	1.9234746936663
57	629	20.6	0.973
57	630	20.7	2.1223170125356
57	631	20.8	1.2710141058993
57	632	20.9	4.1963622219913
57	633	21	0.973
57	634	21.1	1.3794262484936
57	635	21.2	3.5909748788901
57	636	21.3	3.3018021759047
57	637	21.4	0.973
57	638	21.5	3.593442514478
57	639	21.6	0.973
57	640	21.7	1.8709947120799
57	641	21.8	2.7497565221084
57	642	21.9	3.293358888765
57	643	22	2.1958561219915
57	644	22.1	0.973
57	645	22.2	1.2212371980757
57	646	22.3	2.9119312574405
57	647	22.4	2.2961822704379
57	648	22.5	0.973
57	649	22.6	2.4100711990058
57	650	22.7	5.432795308942
57	651	22.8	1.7503782787934
57	652	22.9	0.973
57	653	23	2.5287073372169
57	654	23.1	0.973
57	655	23.2	3.8964811848748
57	656	23.3	2.4115678246844
57	707	23.4	0.973
57	708	23.5	4.6285420611923
57	709	23.6	1.4517622923872
57	710	23.7	2.9228182570406
57	711	23.8	0.973
57	712	23.9	2.4039471328655
57	713	24	3.3927793069966
57	714	24.1	1.3001108055945
57	715	24.2	2.4701912825834
57	716	24.3	3.8462045552487
57	717	24.4	2.2096555907165
57	718	24.5	1.2375924050001
57	719	24.6	1.2694407987448
57	720	24.7	0.973
57	721	24.8	2.6988303011473
57	760	24.9	3.0448847886836
57	761	25	1.7917829215708
57	762	25.1	0.973
57	771	25.2	5.60560582501
57	772	25.3	1.7832261191576
57	773	25.4	0.973
57	774	25.5	5.2525825062366
57	775	25.6	0.973
57	776	25.7	4.2793013813297
57	777	25.8	0.973
57	778	25.9	1.97922722297
57	779	26	2.1003514887442
57	780	26.1	2.9952795796915
57	781	26.2	2.9482978990337
57	782	26.3	1.5356079570009
57	783	26.4	3.2479103089127
57	784	26.5	2.0983148693821
57	785	26.6	0.973
57	794	26.7	3.1770992765834
57	795	26.8	2.689271334155
57	816	26.9	1.3990848510508
57	817	27	0.973
57	818	27.1	0.973
57	819	27.2	0.973
57	820	27.3	0.973
57	821	27.4	0.973
57	822	27.5	0.973
57	823	27.6	0.973
57	824	27.7	0.973
57	825	27.8	0.973
57	858	27.9	0.973
57	909	28	0.973
57	924	28.1	0.973
57	925	28.2	0.973
57	926	28.3	0.973
57	927	28.4	0.973
57	928	28.5	0.973
57	929	28.6	0.973
57	930	28.7	0.973
57	931	28.8	0.973
57	932	28.9	0.973
57	933	29	0.973
57	934	29.1	0.973
57	935	29.2	0.973
57	936	29.3	0.973
57	993	29.4	0.973
57	994	29.5	0.973
57	995	29.6	0.973
57	996	29.7	0.973
57	1011	29.8	0.973
57	1012	29.9	0.973
57	1013	30	0.973
57	1014	30.1	0.973
57	1015	30.2	0.973
57	1016	30.3	0.973
57	1017	30.4	0.973
57	1018	30.5	0.973
57	1019	30.6	0.973
57	1020	30.7	3.4975840121359
57	1021	30.8	3.6740090837092
57	1022	30.9	3.850576236078
57	1023	31	4.0272952111496
57	1024	31.1	3.3184289191235
57	1039	31.2	4.3288218266981
57	1040	31.3	4.5060001366318
57	1041	31.4	4.6833663543926
57	1042	31.5	4.8609302218879
57	1043	31.6	4.4307561327629
57	1044	31.7	4.957510327578
57	1045	31.8	4.3030982513717
57	1046	31.9	3.5564856472953
57	1047	32	5.5127538592787
57	1048	32.1	4.6788735003246
57	1049	32.2	4.851369950035
57	1050	32.3	4.2166499912154
57	1051	32.4	6.0002636355641
57	1052	32.5	4.6027792078098
57	1091	32.6	5.2795951317873
57	1092	32.7	6.2317758196672
57	1093	32.8	6.4024205610596
57	1114	32.9	6.0599831174278
57	1115	33	6.8489721148975
57	1148	33.1	6.624222050076
57	1149	33.2	5.5787439327979
57	1150	33.3	7.0539143546993
57	1151	33.4	6.7544797029027
57	1152	33.5	6.3092437716203
57	1167	33.6	6.8931775317416
57	1168	33.7	5.9497379250807
57	1177	33.8	6.9336771689185
57	1178	33.9	6.6490830463792
57	1217	34	7.6585682767172
57	1218	34.1	5.9860159238585
57	1219	34.2	8.5227669759517
57	1276	34.3	8.4996075238306
57	1291	34.4	6.8652973089726
57	1292	34.5	7.4956814589137
57	1293	34.6	7.6984004453055
57	1294	34.7	7.4782829216311
57	1295	34.8	7.9831126493093
57	1296	34.9	7.8120187471944
57	1297	35	6.6568067752391
57	1298	35.1	10.018899624074
57	1299	35.2	8.9778079571442
57	1300	35.3	7.5885884321211
57	1301	35.4	10.52566729662
57	1302	35.5	7.0202625307243
57	1303	35.6	1.2187815646005
57	1304	35.7	1.2335719107919
57	1305	35.8	1.2627435828537
57	1306	35.9	5.6349809752342
57	1307	36	1.5611452006684
57	1308	36.1	0.973
57	1309	36.2	5.2812499358777
57	1310	36.3	0.973
57	1311	36.4	2.983195977992
57	1312	36.5	0.973
57	1313	36.6	3.4974837784057
57	1314	36.7	0.973
57	1315	36.8	2.0118270289941
57	1316	36.9	4.0581167201679
57	1317	37	0.973
57	1318	37.1	4.2314080311692
57	1319	37.2	1.2733272889908
57	1320	37.3	2.823639407393
57	1321	37.4	0.973
57	1322	37.5	1.524053854702
57	1323	37.6	3.9567100386437
57	1324	37.7	1.2430576388723
57	1325	37.8	0.973
57	1326	37.9	3.8438660685714
57	1327	38	1.2149555935997
57	1328	38.1	0.973
57	1329	38.2	1.8238217083515
57	1330	38.3	5.1495182932115
57	1331	38.4	2.2414923006601
57	1332	38.5	0.973
57	1333	38.6	2.4354586577792
57	1366	38.7	2.9215780951413
56	166	8.3	2.4693884058534
56	167	8.4	2.4434967458012
56	168	8.5	2.412386255906
56	169	8.6	2.589637225778
56	170	8.7	2.0354790821962
56	171	8.8	2.4466310824211
56	172	8.9	1.6777830527908
56	173	9	2.069627123972
56	174	9.1	2.2888606205627
56	183	9.2	2.2011426491247
56	184	9.3	1.8595544085838
56	185	9.4	2.5245620887959
56	186	9.5	1.797044705064
56	187	9.6	2.0101941086352
56	188	9.7	2.0071809895802
56	189	9.8	2.1839777117828
56	190	9.9	2.5999280445278
56	191	10	1.3613708443008
56	192	10.1	1.4556131141726
56	213	10.2	2.3302888976643
56	214	10.3	1.8371803510701
56	215	10.4	1.6680824161274
56	216	10.5	1.9655268300092
56	217	10.6	1.4251643386204
56	218	10.7	2.220208210079
56	219	10.8	1.729108495079
56	220	10.9	1.9686841284856
56	221	11	2.2987878868356
56	222	11.1	1.463425639132
56	223	11.2	2.1485964347376
56	224	11.3	2.5947374627693
56	225	11.4	2.0785279560834
56	226	11.5	2.1533128506737
56	227	11.6	2.2076198634226
56	228	11.7	2.5818670823704
56	229	11.8	1.7193646281958
56	230	11.9	2.10725609574
56	231	12	1.9656850571046
56	232	12.1	2.0365293308161
56	259	12.2	-1.6531625673636
56	260	12.3	-3.0761483309368
56	261	12.4	-3.2120623331472
56	262	12.5	-3.1062323652841
56	263	12.6	-2.8514909751443
56	264	12.7	-3.1138257258611
56	265	12.8	-2.7286253243568
56	266	12.9	-2.5330954484075
56	267	13	-1.9797027356942
56	268	13.1	-3.0910820638676
56	269	13.2	-2.6264583837476
56	270	13.3	-1.7518109863014
56	271	13.4	-3.5285041747696
56	272	13.5	-1.9024765494064
56	273	13.6	-2.4139329909004
56	274	13.7	-1.8141217874717
56	275	13.8	-2.1295206291666
56	276	13.9	-2.2455688474546
56	277	14	-2.851867977953
56	278	14.1	-2.1452086241705
56	299	14.2	2.6
56	300	14.3	2.6
56	301	14.4	2.6
56	302	14.5	2.6
56	303	14.6	2.6
56	304	14.7	2.6
56	325	14.8	2.6
56	326	14.9	2.6
56	327	15	2.6
56	328	15.1	2.5668534402736
56	337	15.2	1.4789858877193
56	338	15.3	2.0971247036243
56	339	15.4	1.4569948070683
56	340	15.5	2.5681143796537
56	341	15.6	1.7910996202612
56	342	15.7	1.658607797185
56	343	15.8	2.578066821699
56	344	15.9	1.8948058919748
56	345	16	1.7897169251926
56	346	16.1	2.106837102701
56	373	16.2	2.5531560311094
56	374	16.3	2.0196872609668
56	375	16.4	2.2783816214651
56	376	16.5	1.7256430013338
56	377	16.6	1.3387116551166
56	378	16.7	1.7770193876931
56	379	16.8	2.1391421225853
56	380	16.9	2.0174143206328
56	381	17	2.246101826313
56	382	17.1	2.3667669117916
56	415	17.2	1.8249255463947
56	416	17.3	2.4735646012938
56	417	17.4	1.9848529339535
56	418	17.5	2.0750694330549
56	419	17.6	2.112821486243
56	434	17.7	2.0734537062934
56	435	17.8	1.7346189513104
56	436	17.9	1.918560988293
56	437	18	2.2004110452021
56	438	18.1	1.4868409618968
56	483	18.2	1.9132956806337
56	484	18.3	1.4581157591427
56	485	18.4	2.2608241496608
56	530	18.5	1.3380491270916
56	531	18.6	1.9400737909134
56	532	18.7	2.5982016386464
56	533	18.8	1.371465191734
56	534	18.9	2.3841378326295
56	535	19	2.0450243328232
56	536	19.1	2.4600969824241
56	581	19.2	0.36362117490551
56	582	19.3	-0.38357417886145
56	609	19.4	0.55225082857069
56	610	19.5	0.062389430659824
56	611	19.6	-0.066594341886237
56	612	19.7	0.10840515401215
56	613	19.8	-0.50640971274115
56	614	19.9	0.31825747943948
56	615	20	-0.38992214838508
56	616	20.1	0.19587913861033
56	617	20.2	-0.25298671470955
56	618	20.3	0.10341932123993
56	627	20.4	0.16878602125216
56	628	20.5	-0.02988396922591
56	629	20.6	-0.31685759245885
56	630	20.7	0.030634879157887
56	631	20.8	-0.22468639605213
56	632	20.9	0.65015378284734
56	633	21	-0.62230812108609
56	634	21.1	-0.19180854458828
56	635	21.2	0.47112649700138
56	636	21.3	0.38212404157967
56	637	21.4	-0.51167749965098
56	638	21.5	0.46967714063356
56	639	21.6	-0.89791561672463
56	640	21.7	-0.043425122043121
56	641	21.8	0.22042975744698
56	642	21.9	0.38180278143846
56	643	22	0.05225405860692
56	644	22.1	-0.36051488446537
56	645	22.2	-0.23934708531016
56	646	22.3	0.26872130506673
56	647	22.4	0.083252954762418
56	648	22.5	-0.43444355621467
56	649	22.6	0.11870980521199
56	650	22.7	1.0185860015219
56	651	22.8	-0.082299154903733
56	652	22.9	-0.33803750597871
56	653	23	0.15133909932336
56	654	23.1	-0.59054287106264
56	655	23.2	0.56132120224648
56	656	23.3	0.11590898700524
56	707	23.4	-0.92960139240605
56	708	23.5	0.78097143380438
56	709	23.6	-0.1708862352185
56	710	23.7	0.26923044947909
56	711	23.8	-0.76399592391681
56	712	23.9	0.11632796006742
56	713	24	0.41140901497565
56	714	24.1	-0.2161267128773
56	715	24.2	0.13493483255152
56	716	24.3	0.54421714604832
56	717	24.4	0.054661422991202
56	718	24.5	-0.23557941175532
56	719	24.6	-0.22572602713479
56	720	24.7	-0.31338433073834
56	721	24.8	0.2034480317263
56	760	24.9	0.30570770902559
56	761	25	-0.069394619204104
56	762	25.1	-0.78095330751967
56	771	25.2	1.0702242701082
56	772	25.3	-0.072504056734033
56	773	25.4	-0.87085597182158
56	774	25.5	0.96445779839996
56	775	25.6	-0.58596099298448
56	776	25.7	0.67280122200026
56	777	25.8	-0.97735316290054
56	778	25.9	-0.011486540292385
56	779	26	0.02488151751459
56	780	26.1	0.29261973844841
56	781	26.2	0.27711642878129
56	782	26.3	-0.14586889254861
56	783	26.4	0.36563879190945
56	784	26.5	0.021669941279097
56	785	26.6	-0.81636545427608
56	794	26.7	0.34693379092495
56	795	26.8	0.19963310319
56	816	26.9	-0.18670075212139
56	817	27	-0.81590293864096
56	818	27.1	-3.9522233394643
56	819	27.2	-2.7487425574958
56	820	27.3	-4.4838806276743
56	821	27.4	-3.0533773971715
56	822	27.5	-2.7020805584778
56	823	27.6	-3.8753078726665
56	824	27.7	-3.7765612432194
56	825	27.8	-3.002003402254
56	858	27.9	-3.1982360585317
56	909	28	-2.866545286421
56	924	28.1	-3.1606838553067
56	925	28.2	-3.2829256569944
56	926	28.3	-3.2630739498941
56	927	28.4	-3.3750814844567
56	928	28.5	-2.0939681297642
56	929	28.6	-3.3618271612704
56	930	28.7	-3.978420554193
56	931	28.8	-2.2544990438856
56	932	28.9	-2.7874407574833
56	933	29	-2.9033519056348
56	934	29.1	-3.3087898298847
56	935	29.2	-2.0275406680066
56	936	29.3	-3.3183023933544
56	993	29.4	-2.2247898599649
56	994	29.5	-2.9577053293317
56	995	29.6	-3.1509849921335
56	996	29.7	-1.7375850800315
56	1011	29.8	-3.2538485520841
56	1012	29.9	-2.7903033059575
56	1013	30	-1.5418870286341
56	1014	30.1	-3.3995023117535
56	1015	30.2	-1.4712452188317
56	1016	30.3	-3.0778827566434
56	1017	30.4	-1.1507514156596
56	1018	30.5	-2.4833610390239
56	1019	30.6	-2.7212029682417
56	1020	30.7	2.6
56	1021	30.8	2.6
56	1022	30.9	2.6
56	1023	31	2.6
56	1024	31.1	1.8306936612586
56	1039	31.2	2.6
56	1040	31.3	2.6
56	1041	31.4	2.6
56	1042	31.5	2.6
56	1043	31.6	2.1821514941985
56	1044	31.7	2.447715544072
56	1045	31.8	1.9253966168035
56	1046	31.9	1.3883262547431
56	1047	32	2.5574407423614
56	1048	32.1	1.9658099158667
56	1049	32.2	2.0045727471821
56	1050	32.3	1.5855190002359
56	1051	32.4	2.5235486628255
56	1052	32.5	1.6943182630697
56	1091	32.6	2.0053946945583
56	1092	32.7	2.4297847633017
56	1093	32.8	2.4357222178485
56	1114	32.9	2.1974759830395
56	1115	33	2.5017061232123
56	1148	33.1	2.3250266240677
56	1149	33.2	1.7983960252488
56	1150	33.3	2.3978848113678
56	1151	33.4	2.2062237460166
56	1152	33.5	1.9669725708664
56	1167	33.6	2.1599311571801
56	1168	33.7	1.7331379727693
56	1177	33.8	2.0849600718124
56	1178	33.9	1.9293645872269
56	1217	34	2.269487883267
56	1218	34.1	1.5986601229059
56	1219	34.2	2.4939964101184
56	1276	34.3	2.4254528745543
56	1291	34.4	1.7998085318599
56	1292	34.5	1.9845985603053
56	1293	34.6	2.0151564389234
56	1294	34.7	1.9033521255711
56	1295	34.8	2.0345582131296
56	1296	34.9	1.9411993319169
56	1297	35	1.5381273143226
56	1298	35.1	2.5701438870048
56	1299	35.2	2.1951157804113
56	1300	35.3	1.7323569086613
56	1301	35.4	2.5822479731636
56	1302	35.5	1.4986469758023
56	1303	35.6	-0.24063666879666
56	1304	35.7	-0.2358809247613
56	1305	35.8	-0.22678819394205
56	1306	35.9	1.0791902682744
56	1307	36	-0.13877270543016
56	1308	36.1	-0.78430747198873
56	1309	36.2	0.97290923751425
56	1310	36.3	-0.66989948700648
56	1311	36.4	0.28789390765597
56	1312	36.5	-0.55718252765947
56	1313	36.6	0.44276969768108
56	1314	36.7	-0.3491214720998
56	1315	36.8	-0.0018776519689645
56	1316	36.9	0.60904257914517
56	1317	37	-0.47450297079049
56	1318	37.1	0.65949155569541
56	1319	37.2	-0.22480155634693
56	1320	37.3	0.23843480283393
56	1321	37.4	-0.67565646022558
56	1322	37.5	-0.14855288995895
56	1323	37.6	0.57901260533836
56	1324	37.7	-0.23354411686306
56	1325	37.8	-0.33418261311017
56	1326	37.9	0.54536626671908
56	1327	38	-0.24193666840439
56	1328	38.1	-0.30266227042302
56	1329	38.2	-0.058260009903464
56	1330	38.3	0.93330431154465
56	1331	38.4	0.063917498919182
56	1332	38.5	-1.0988447701559
56	1333	38.6	0.12569087350276
56	1366	38.7	0.27058857723604
55	165	8.2	0.25389976076828
55	166	8.3	0.50083860135362
55	167	8.4	0.74518827593374
55	168	8.5	0.98642690152434
55	169	8.6	1.2453906241021
55	170	8.7	1.4489385323218
55	171	8.8	1.6936016405639
55	172	8.9	1.8613799458429
55	173	9	2.0683426582401
55	174	9.1	2.2972287202964
55	183	9.2	2.5173429852089
55	184	9.3	2.7032984260673
55	185	9.4	2.9557546349469
55	186	9.5	3.1354591054533
55	187	9.6	3.3364785163168
55	188	9.7	3.5371966152748
55	189	9.8	3.7555943864531
55	190	9.9	4.0155871909059
55	191	10	4.1517242753359
55	192	10.1	4.2972855867532
55	213	10.2	4.5303144765196
55	214	10.3	4.7140325116266
55	215	10.4	4.8808407532394
55	216	10.5	5.0773934362403
55	217	10.6	5.2199098701023
55	218	10.7	5.4419306911102
55	219	10.8	5.6148415406181
55	220	10.9	5.8117099534667
55	221	11	6.0415887421503
55	222	11.1	6.1879313060635
55	223	11.2	6.4027909495372
55	224	11.3	6.6622646958142
55	225	11.4	6.8701174914225
55	226	11.5	7.0854487764899
55	227	11.6	7.3062107628321
55	228	11.7	7.5643974710692
55	229	11.8	7.7363339338887
55	230	11.9	7.9470595434627
55	231	12	8.1436280491732
55	232	12.1	8.3472809822548
55	259	12.2	8.1819647255185
55	260	12.3	7.8743498924248
55	261	12.4	7.5531436591101
55	262	12.5	7.2425204225816
55	263	12.6	6.9573713250672
55	264	12.7	6.6459887524811
55	265	12.8	6.3731262200454
55	266	12.9	6.1198166752047
55	267	13	5.9218464016352
55	268	13.1	5.6127381952485
55	269	13.2	5.3500923568737
55	270	13.3	5.1749112582436
55	271	13.4	4.8220608407666
55	272	13.5	4.631813185826
55	273	13.6	4.3904198867359
55	274	13.7	4.2090077079888
55	275	13.8	3.9960556450721
55	276	13.9	3.7714987603267
55	277	14	3.4863119625314
55	278	14.1	3.2717911001143
55	299	14.2	3.5317911001143
55	300	14.3	3.7917911001143
55	301	14.4	4.0517911001143
55	302	14.5	4.3117911001143
55	303	14.6	4.5717911001143
55	304	14.7	4.8317911001143
55	325	14.8	5.0917911001143
55	326	14.9	5.3517911001143
55	327	15	5.6117911001143
55	328	15.1	5.8684764441417
55	337	15.2	6.0163750329136
55	338	15.3	6.226087503276
55	339	15.4	6.3717869839828
55	340	15.5	6.6285984219482
55	341	15.6	6.8077083839743
55	342	15.7	6.9735691636928
55	343	15.8	7.2313758458627
55	344	15.9	7.4208564350602
55	345	16	7.5998281275795
55	346	16.1	7.8105118378496
55	373	16.2	8.0658274409605
55	374	16.3	8.2677961670572
55	375	16.4	8.4956343292037
55	376	16.5	8.6681986293371
55	377	16.6	8.8020697948487
55	378	16.7	8.9797717336181
55	379	16.8	9.1936859458766
55	380	16.9	9.3954273779399
55	381	17	9.6200375605712
55	382	17.1	9.8567142517503
55	415	17.2	10.03920680639
55	416	17.3	10.286563266519
55	417	17.4	10.485048559915
55	418	17.5	10.69255550322
55	419	17.6	10.903837651844
55	434	17.7	11.111183022474
55	435	17.8	11.284644917605
55	436	17.9	11.476501016434
55	437	18	11.696542120954
55	438	18.1	11.845226217144
55	483	18.2	12.036555785207
55	484	18.3	12.182367361122
55	485	18.4	12.408449776088
55	530	18.5	12.542254688797
55	531	18.6	12.736262067888
55	532	18.7	12.996082231753
55	533	18.8	13.133228750926
55	534	18.9	13.371642534189
55	535	19	13.576144967471
55	536	19.1	13.822154665714
55	581	19.2	13.858516783204
55	582	19.3	13.820159365318
55	609	19.4	13.875384448175
55	610	19.5	13.881623391241
55	611	19.6	13.874963957053
55	612	19.7	13.885804472454
55	613	19.8	13.83516350118
55	614	19.9	13.866989249124
55	615	20	13.827997034285
55	616	20.1	13.847584948146
55	617	20.2	13.822286276675
55	618	20.3	13.832628208799
55	627	20.4	13.849506810925
55	628	20.5	13.846518414002
55	629	20.6	13.814832654756
55	630	20.7	13.817896142672
55	631	20.8	13.795427503067
55	632	20.9	13.860442881351
55	633	21	13.798212069243
55	634	21.1	13.779031214784
55	635	21.2	13.826143864484
55	636	21.3	13.864356268642
55	637	21.4	13.813188518677
55	638	21.5	13.86015623274
55	639	21.6	13.770364671068
55	640	21.7	13.766022158863
55	641	21.8	13.788065134608
55	642	21.9	13.826245412752
55	643	22	13.831470818613
55	644	22.1	13.795419330166
55	645	22.2	13.771484621635
55	646	22.3	13.798356752142
55	647	22.4	13.806682047618
55	648	22.5	13.763237691997
55	649	22.6	13.775108672518
55	650	22.7	13.87696727267
55	651	22.8	13.86873735718
55	652	22.9	13.834933606582
55	653	23	13.850067516514
55	654	23.1	13.791013229408
55	655	23.2	13.847145349632
55	656	23.3	13.858736248333
55	707	23.4	13.765776109092
55	708	23.5	13.843873252473
55	709	23.6	13.826784628951
55	710	23.7	13.853707673899
55	711	23.8	13.777308081507
55	712	23.9	13.788940877514
55	713	24	13.830081779012
55	714	24.1	13.808469107724
55	715	24.2	13.821962590979
55	716	24.3	13.876384305584
55	717	24.4	13.881850447883
55	718	24.5	13.858292506707
55	719	24.6	13.835719903994
55	720	24.7	13.80438147092
55	721	24.8	13.824726274093
55	760	24.9	13.855297044995
55	761	25	13.848357583075
55	762	25.1	13.770262252323
55	771	25.2	13.877284679334
55	772	25.3	13.87003427366
55	773	25.4	13.782948676478
55	774	25.5	13.879394456318
55	775	25.6	13.82079835702
55	776	25.7	13.88807847922
55	777	25.8	13.79034316293
55	778	25.9	13.7891945089
55	779	26	13.791682660652
55	780	26.1	13.820944634497
55	781	26.2	13.848656277375
55	782	26.3	13.83406938812
55	783	26.4	13.870633267311
55	784	26.5	13.872800261439
55	785	26.6	13.791163716011
55	794	26.7	13.825857095104
55	795	26.8	13.845820405423
55	816	26.9	13.827150330211
55	817	27	13.745560036346
55	818	27.1	13.3503377024
55	819	27.2	13.07546344665
55	820	27.3	12.627075383883
55	821	27.4	12.321737644166
55	822	27.5	12.051529588318
55	823	27.6	11.663998801051
55	824	27.7	11.28634267673
55	825	27.8	10.986142336504
55	858	27.9	10.666318730651
55	909	28	10.379664202009
55	924	28.1	10.063595816478
55	925	28.2	9.7353032507787
55	926	28.3	9.4089958557893
55	927	28.4	9.0714877073436
55	928	28.5	8.8620908943672
55	929	28.6	8.5259081782402
55	930	28.7	8.1280661228209
55	931	28.8	7.9026162184323
55	932	28.9	7.623872142684
55	933	29	7.3335369521205
55	934	29.1	7.0026579691321
55	935	29.2	6.7999039023314
55	936	29.3	6.468073662996
55	993	29.4	6.2455946769995
55	994	29.5	5.9498241440663
55	995	29.6	5.6347256448529
55	996	29.7	5.4609671368498
55	1011	29.8	5.1355822816414
55	1012	29.9	4.8565519510456
55	1013	30	4.7023632481822
55	1014	30.1	4.3624130170069
55	1015	30.2	4.2152884951237
55	1016	30.3	3.9075002194594
55	1017	30.4	3.7924250778934
55	1018	30.5	3.544088973991
55	1019	30.6	3.2719686771669
55	1020	30.7	3.5319686771669
55	1021	30.8	3.7919686771669
55	1022	30.9	4.0519686771669
55	1023	31	4.3119686771669
55	1024	31.1	4.4950380432927
55	1039	31.2	4.7550380432927
55	1040	31.3	5.0150380432927
55	1041	31.4	5.2750380432927
55	1042	31.5	5.5350380432927
55	1043	31.6	5.7532531927126
55	1044	31.7	5.9980247471198
55	1045	31.8	6.1905644088001
55	1046	31.9	6.3293970342744
55	1047	32	6.5851411085106
55	1048	32.1	6.7817221000972
55	1049	32.2	6.9821793748154
55	1050	32.3	7.140731274839
55	1051	32.4	7.3930861411216
55	1052	32.5	7.5625179674286
55	1091	32.6	7.7630574368844
55	1092	32.7	8.0060359132146
55	1093	32.8	8.2496081349994
55	1114	32.9	8.4693557333034
55	1115	33	8.7195263456246
55	1148	33.1	8.9520290080314
55	1149	33.2	9.1318686105562
55	1150	33.3	9.371657091693
55	1151	33.4	9.5922794662947
55	1152	33.5	9.7889767233813
55	1167	33.6	10.004969839099
55	1168	33.7	10.178283636376
55	1177	33.8	10.386779643558
55	1178	33.9	10.57971610228
55	1217	34	10.806664890607
55	1218	34.1	10.966530902897
55	1219	34.2	11.215930543909
55	1276	34.3	11.458475831365
55	1291	34.4	11.638456684551
55	1292	34.5	11.836916540581
55	1293	34.6	12.038432184474
55	1294	34.7	12.228767397031
55	1295	34.8	12.432223218344
55	1296	34.9	12.626343151535
55	1297	35	12.780155882968
55	1298	35.1	13.037170271668
55	1299	35.2	13.256681849709
55	1300	35.3	13.429917540575
55	1301	35.4	13.688142337892
55	1302	35.5	13.838007035472
55	1303	35.6	13.813943368592
55	1304	35.7	13.790355276116
55	1305	35.8	13.767676456722
55	1306	35.9	13.875595483549
55	1307	36	13.861718213006
55	1308	36.1	13.783287465808
55	1309	36.2	13.880578389559
55	1310	36.3	13.813588440858
55	1311	36.4	13.842377831624
55	1312	36.5	13.786659578858
55	1313	36.6	13.830936548626
55	1314	36.7	13.796024401416
55	1315	36.8	13.795836636219
55	1316	36.9	13.856740894134
55	1317	37	13.809290597055
55	1318	37.1	13.875239752624
55	1319	37.2	13.852759596989
55	1320	37.3	13.876603077273
55	1321	37.4	13.80903743125
55	1322	37.5	13.794182142254
55	1323	37.6	13.852083402788
55	1324	37.7	13.828728991102
55	1325	37.8	13.795310729791
55	1326	37.9	13.849847356463
55	1327	38	13.825653689622
55	1328	38.1	13.79538746258
55	1329	38.2	13.78956146159
55	1330	38.3	13.882891892744
55	1331	38.4	13.889283642636
55	1332	38.5	13.779399165621
55	1333	38.6	13.791968252971
55	1366	38.7	13.819027110694
54	150	8.1	1756.3437279736
54	165	8.2	1756.3437279736
54	166	8.3	1756.3185059097
54	167	8.4	1756.2687532706
54	168	8.5	1756.1947272605
54	169	8.6	1756.0967369268
54	170	8.7	1755.9730214821
54	171	8.8	1755.8290858595
54	172	8.9	1755.6608457297
54	173	9	1755.4759387268
54	174	9.1	1755.2704723238
54	183	9.2	1755.0422686845
54	184	9.3	1754.7921991875
54	185	9.4	1754.5236571249
54	186	9.5	1754.2300363989
54	187	9.6	1753.9185640704
54	188	9.7	1753.5871227415
54	189	9.8	1753.2357423442
54	190	9.9	1752.8626666033
54	191	10	1752.4637635238
54	192	10.1	1752.0513367678
54	213	10.2	1751.6244501451
54	214	10.3	1751.1744147431
54	215	10.4	1750.7061290363
54	216	10.5	1750.2212728211
54	217	10.6	1749.7168913244
54	218	10.7	1749.1983524351
54	219	10.8	1748.6577582933
54	220	10.9	1748.0999874182
54	221	11	1747.5226598974
54	222	11.1	1746.922496524
54	223	11.2	1746.3077956755
54	224	11.3	1745.6717509563
54	225	11.4	1745.009930461
54	226	11.5	1744.327462146
54	227	11.6	1743.6207756267
54	228	11.7	1742.890678728
54	229	11.8	1742.1347816818
54	230	11.9	1741.3617033247
54	231	12	1740.567567525
54	232	12.1	1739.7537889774
54	259	12.2	1738.9196597473
54	260	12.3	1738.1020502825
54	261	12.4	1737.3151802314
54	262	12.5	1736.560407759
54	263	12.6	1735.8366753248
54	264	12.7	1735.1414373427
54	265	12.8	1734.4773152779
54	266	12.9	1733.8404598901
54	267	13	1733.2289172834
54	268	13.1	1732.6371575007
54	269	13.2	1732.0762863621
54	270	13.3	1731.541660964
54	271	13.4	1731.0245411075
54	272	13.5	1730.5426809778
54	273	13.6	1730.0798319645
54	274	13.7	1729.6411049626
54	275	13.8	1729.2205061633
54	276	13.9	1728.8211872922
54	277	14	1728.4443079989
54	278	14.1	1728.095926925
54	299	14.2	1727.7689825467
54	300	14.3	1727.4160568219
54	301	14.4	1727.0371497505
54	302	14.5	1726.6322613326
54	303	14.6	1726.2013915682
54	304	14.7	1725.7445404572
54	325	14.8	1725.2617079997
54	326	14.9	1724.7528941957
54	327	15	1724.2180990451
54	328	15.1	1723.657322548
54	337	15.2	1723.0732648644
54	338	15.3	1722.4750950348
54	339	15.4	1721.8560748305
54	340	15.5	1721.2225686555
54	341	15.6	1720.5731269645
54	342	15.7	1719.9812290148
54	343	15.8	1719.3749102572
54	344	15.9	1718.7461764315
54	345	16	1718.2962206252
54	346	16.1	1717.9047798024
54	373	16.2	1717.5024873914
54	374	16.3	1717.2906846357
54	375	16.4	1717.1825437658
54	376	16.5	1717.0714228252
54	377	16.6	1716.9818268246
54	378	16.7	1716.9914063509
54	379	16.8	1717.0011792749
54	380	16.9	1717.0111850075
54	381	17	1717.0214103006
54	382	17.1	1717.0318800429
54	415	17.2	1717.0426073667
54	416	17.3	1717.0535333021
54	417	17.4	1717.064728442
54	418	17.5	1717.0761395988
54	419	17.6	1717.0877765908
54	434	17.7	1717.0996435269
54	435	17.8	1717.1117361224
54	436	17.9	1717.1240175011
54	437	18	1717.1365076819
54	438	18.1	1717.1492373393
54	483	18.2	1717.1621288135
54	484	18.3	1717.1752285168
54	485	18.4	1717.1884869107
54	530	18.5	1717.201991356
54	531	18.6	1717.2156414249
54	532	18.7	1717.2295026371
54	533	18.8	1717.2436466184
54	534	18.9	1717.25793986
54	535	19	1717.2724925736
54	536	19.1	1717.2872678527
54	581	19.2	1717.3023108707
54	582	19.3	1717.3173934625
54	609	19.4	1717.3324343089
54	610	19.5	1717.3475352582
54	611	19.6	1717.3626429975
54	612	19.7	1717.3777434892
54	613	19.8	1717.392855779
54	614	19.9	1717.4079129548
54	615	20	1717.4230047674
54	616	20.1	1717.4380541437
54	617	20.2	1717.4531248381
54	618	20.3	1717.4681679993
54	627	20.4	1717.4832224159
54	628	20.5	1717.4982952019
54	629	20.6	1717.5133647356
54	630	20.7	1717.5283997848
54	631	20.8	1717.5434381681
54	632	20.9	1717.5584520981
54	633	21	1717.5735367861
54	634	21.1	1717.5885537467
54	635	21.2	1717.5728565468
54	636	21.3	1717.5538183994
54	637	21.4	1717.5347276348
54	638	21.5	1717.5157073265
54	639	21.6	1717.4966223452
54	640	21.7	1717.477661004
54	641	21.8	1717.4587056422
54	642	21.9	1717.439719928
54	643	22	1717.4206816408
54	644	22.1	1717.4016361584
54	645	22.2	1717.3826403177
54	646	22.3	1717.3636774343
54	647	22.4	1717.3446775489
54	648	22.5	1717.3256661998
54	649	22.6	1717.3067146721
54	650	22.7	1717.2877467986
54	651	22.8	1717.268638669
54	652	22.9	1717.2495418718
54	653	23	1717.2304916212
54	654	23.1	1717.1241042708
54	655	23.2	1716.6756487512
54	656	23.3	1715.6490312878
54	707	23.4	1714.3054871019
54	708	23.5	1712.9306633955
54	709	23.6	1711.5462765066
54	710	23.7	1710.1635984796
54	711	23.8	1708.7782281489
54	712	23.9	1707.4004977751
54	713	24	1706.021604122
54	714	24.1	1704.63859638
54	715	24.2	1703.2577499045
54	716	24.3	1701.8755540811
54	717	24.4	1700.487916088
54	718	24.5	1699.0997314808
54	719	24.6	1697.713902667
54	720	24.7	1696.3303311127
54	721	24.8	1694.9498934007
54	760	24.9	1693.5674212091
54	761	25	1692.1818919414
54	762	25.1	1690.7970566196
54	771	25.2	1689.4200308284
54	772	25.3	1688.0323027979
54	773	25.4	1686.6452998078
54	774	25.5	1685.2670051939
54	775	25.6	1683.8790655135
54	776	25.7	1682.4969854439
54	777	25.8	1681.108177361
54	778	25.9	1679.7291428113
54	779	26	1678.3502231271
54	780	26.1	1676.9710546277
54	781	26.2	1675.5889599304
54	782	26.3	1674.2040940683
54	783	26.4	1672.8206868954
54	784	26.5	1671.433623334
54	785	26.6	1670.0463430731
54	794	26.7	1668.6672264682
54	795	26.8	1667.2846405247
54	816	26.9	1665.9000582499
54	817	27	1664.5173429829
54	818	27.1	1663.1427867467
54	819	27.2	1661.8077527506
54	820	27.3	1660.5002061847
54	821	27.4	1659.2374984326
54	822	27.5	1658.0053244597
54	823	27.6	1656.800171297
54	824	27.7	1655.6337712195
54	825	27.8	1654.5051367609
54	858	27.9	1653.4065223413
54	909	28	1652.3398902878
54	924	28.1	1651.3019236919
54	925	28.2	1650.29556394
54	926	28.3	1649.3220334502
54	927	28.4	1648.3811337054
54	928	28.5	1647.4739847812
54	929	28.6	1646.5877755418
54	930	28.7	1645.7351845797
54	931	28.8	1644.9223778299
54	932	28.9	1644.1321160743
54	933	29	1643.3697287311
54	934	29.1	1642.6363749118
54	935	29.2	1641.9361089964
54	936	29.3	1641.2561184911
54	993	29.4	1640.6093110153
54	994	29.5	1639.984751442
54	995	29.6	1639.3897689269
54	996	29.7	1638.8262962671
54	1011	29.8	1638.280199461
54	1012	29.9	1637.7666411459
54	1013	30	1637.2809858686
54	1014	30.1	1636.8107494642
54	1015	30.2	1636.3745080887
54	1016	30.3	1635.9529791679
54	1017	30.4	1635.5622290798
54	1018	30.5	1635.1829865079
54	1019	30.6	1634.8285775505
54	1020	30.7	1634.5013806274
54	1021	30.8	1634.1481836999
54	1022	30.9	1633.7689867681
54	1023	31	1633.3637898318
54	1024	31.1	1632.9325928911
54	1039	31.2	1632.5067392334
54	1040	31.3	1632.113374648
54	1041	31.4	1631.6985013404
54	1042	31.5	1631.3196708456
54	1043	31.6	1631.0678496397
54	1044	31.7	1631.133117045
54	1045	31.8	1631.4171558745
54	1046	31.9	1631.9349813356
54	1047	32	1632.4644198037
54	1048	32.1	1633.0905077857
54	1049	32.2	1633.7685968788
54	1050	32.3	1634.4667292425
54	1051	32.4	1635.1807148531
54	1052	32.5	1635.9199328573
54	1091	32.6	1636.6760919677
54	1092	32.7	1637.4523025672
54	1093	32.8	1638.2528080363
54	1114	32.9	1639.0776677425
54	1115	33	1639.9244995152
54	1148	33.1	1640.796345283
54	1149	33.2	1641.6914384676
54	1150	33.3	1642.6045134082
54	1151	33.4	1643.5415642582
54	1152	33.5	1644.5006746416
54	1167	33.6	1645.47945234
54	1168	33.7	1646.4798267028
54	1177	33.8	1647.4975303212
54	1178	33.9	1648.5360809849
54	1217	34	1649.5939229299
54	1218	34.1	1650.6744569723
54	1219	34.2	1651.7709756565
54	1276	34.3	1652.8924312482
54	1291	34.4	1654.038138396
54	1292	34.5	1655.2018414233
54	1293	34.6	1656.3853880038
54	1294	34.7	1657.589083679
54	1295	34.8	1658.8118105426
54	1296	34.9	1660.0548804949
54	1297	35	1661.3173600613
54	1298	35.1	1662.5952190157
54	1299	35.2	1663.898776259
54	1300	35.3	1665.2242819698
54	1301	35.4	1666.5671091265
54	1302	35.5	1667.9357555981
54	1303	35.6	1669.3193867027
54	1304	35.7	1670.7006117356
54	1305	35.8	1672.0794782483
54	1306	35.9	1673.456077157
54	1307	36	1674.8434666458
54	1308	36.1	1676.2294685776
54	1309	36.2	1677.6076283959
54	1310	36.3	1678.9955161141
54	1311	36.4	1680.3767056586
54	1312	36.5	1681.7607737892
54	1313	36.6	1683.1392707775
54	1314	36.7	1684.5221949201
54	1315	36.8	1685.9016281539
54	1316	36.9	1687.2810420667
54	1317	37	1688.6665456558
54	1318	37.1	1690.0473047992
54	1319	37.2	1691.4346580466
54	1320	37.3	1692.819763555
54	1321	37.4	1694.2072531181
54	1322	37.5	1695.5879869479
54	1323	37.6	1696.9672354317
54	1324	37.7	1698.352273329
54	1325	37.8	1699.7349760726
54	1326	37.9	1701.1143374012
54	1327	38	1702.4991517214
54	1328	38.1	1703.8815469726
54	1329	38.2	1705.2609159736
54	1330	38.3	1706.6397024461
54	1331	38.4	1708.0278208133
54	1332	38.5	1709.4165782769
54	1333	38.6	1710.7943486449
54	1366	38.7	1712.173375767
53	150	8.1	6437.2324310417
53	165	8.2	6437.2324310417
53	166	8.3	6437.235330632
53	167	8.4	6437.2410503172
53	168	8.5	6437.2495605287
53	169	8.6	6437.2608257375
53	170	8.7	6437.275048368
53	171	8.8	6437.2915955598
53	172	8.9	6437.3109368572
53	173	9	6437.3321942192
53	174	9.1	6437.3558151401
53	183	9.2	6437.3820499895
53	184	9.3	6437.4107985914
53	185	9.4	6437.4416708447
53	186	9.5	6437.4754262025
53	187	9.6	6437.5112338244
53	188	9.7	6437.5493371314
53	189	9.8	6437.5897326826
53	190	9.9	6437.6326223836
53	191	10	6437.6784812587
53	192	10.1	6437.7258948488
53	213	10.2	6437.7749707805
53	214	10.3	6437.8267079527
53	215	10.4	6437.8805432246
53	216	10.5	6437.9362834827
53	217	10.6	6437.994268415
53	218	10.7	6438.0538809159
53	219	10.8	6438.1160289426
53	220	10.9	6438.1801516486
53	221	11	6438.2465226346
53	222	11.1	6438.315518886
53	223	11.2	6438.3861864013
53	224	11.3	6438.4593076601
53	225	11.4	6438.5353921654
53	226	11.5	6438.6138503945
53	227	11.6	6438.6572483481
53	228	11.7	6438.6835261547
53	229	11.8	6438.7107325659
53	230	11.9	6438.7385573706
53	231	12	6438.7671400794
53	232	12.1	6438.7964297742
53	259	12.2	6438.8264519352
53	260	12.3	6438.8558795132
53	261	12.4	6438.8842007115
53	262	12.5	6438.9113666468
53	263	12.6	6438.9374153823
53	264	12.7	6438.9624385392
53	265	12.8	6438.9863417653
53	266	12.9	6439.0092636032
53	267	13	6439.0312743779
53	268	13.1	6439.052573125
53	269	13.2	6439.0727601212
53	270	13.3	6439.092002475
53	271	13.4	6439.1106147656
53	272	13.5	6439.1279579804
53	273	13.6	6439.1446169429
53	274	13.7	6439.1604077008
53	275	13.8	6439.1755459844
53	276	13.9	6439.1899183562
53	277	14	6439.2034830779
53	278	14.1	6439.2160220854
53	299	14.2	6439.2277895387
53	300	14.3	6439.2404921183
53	301	14.4	6439.2541298242
53	302	14.5	6439.2687026563
53	303	14.6	6439.2842106148
53	304	14.7	6439.3006536995
53	325	14.8	6439.3180319105
53	326	14.9	6439.3363452478
53	327	15	6439.3555937114
53	328	15.1	6439.3757773013
53	337	15.2	6439.3301076234
53	338	15.3	6439.2661653313
53	339	15.4	6439.199994206
53	340	15.5	6439.1322745804
53	341	15.6	6439.0320187128
53	342	15.7	6438.6958436638
53	343	15.8	6438.3514781558
53	344	15.9	6437.9943817596
53	345	16	6437.4278097289
53	346	16.1	6436.7764778679
53	373	16.2	6436.1070896758
53	374	16.3	6435.3446625021
53	375	16.4	6434.5250685406
53	376	16.5	6433.6828887803
53	377	16.6	6432.8221417704
53	378	16.7	6431.9419246424
53	379	16.8	6431.0439371157
53	380	16.9	6430.124557921
53	381	17	6429.1850043506
53	382	17.1	6428.2229895029
53	415	17.2	6427.2373067133
53	416	17.3	6426.2333744577
53	417	17.4	6425.204706271
53	418	17.5	6424.1561893261
53	419	17.6	6423.0869214475
53	434	17.7	6421.9965251106
53	435	17.8	6420.8853939975
53	436	17.9	6419.7569164949
53	437	18	6418.6092531612
53	438	18.1	6417.4395854633
53	483	18.2	6416.2550491844
53	484	18.3	6415.0513797281
53	485	18.4	6413.8331289461
53	530	18.5	6412.5922696619
53	531	18.6	6411.3380297322
53	532	18.7	6410.0643888409
53	533	18.8	6408.7647656336
53	534	18.9	6407.4514276163
53	535	19	6406.1142479458
53	536	19.1	6404.7566177962
53	581	19.2	6403.3743863931
53	582	19.3	6401.9885187363
53	609	19.4	6400.6064868656
53	610	19.5	6399.2189324229
53	611	19.6	6397.8307540786
53	612	19.7	6396.4432416855
53	613	19.8	6395.0546452284
53	614	19.9	6393.6711129267
53	615	20	6392.2843980136
53	616	20.1	6390.9015823669
53	617	20.2	6389.5168079063
53	618	20.3	6388.1345633419
53	627	20.4	6386.7512845725
53	628	20.5	6385.3663179233
53	629	20.6	6383.9816501173
53	630	20.7	6382.6001509237
53	631	20.8	6381.2183453779
53	632	20.9	6379.8387867218
53	633	21	6378.452726453
53	634	21.1	6377.0728893372
53	635	21.2	6375.6950146259
53	636	21.3	6374.3124334909
53	637	21.4	6372.9260312075
53	638	21.5	6371.5447455759
53	639	21.6	6370.158763286
53	640	21.7	6368.7817599362
53	641	21.8	6367.4051908273
53	642	21.9	6366.0264174737
53	643	22	6364.6438261842
53	644	22.1	6363.2607123667
53	645	22.2	6361.8812036113
53	646	22.3	6360.5040882692
53	647	22.4	6359.1242857786
53	648	22.5	6357.7436507786
53	649	22.6	6356.3673601096
53	650	22.7	6354.9898823711
53	651	22.8	6353.6022190176
53	652	22.9	6352.2153786358
53	653	23	6350.8319185478
53	654	23.1	6349.4535274553
53	655	23.2	6348.1759708494
53	656	23.3	6347.2990083989
53	707	23.4	6347.0189204069
53	708	23.5	6346.9887673894
53	709	23.6	6346.9873080919
53	710	23.7	6346.9858505957
53	711	23.8	6346.9843902616
53	712	23.9	6346.9829379808
53	713	24	6346.9814844738
53	714	24.1	6346.9800266301
53	715	24.2	6346.9785710646
53	716	24.3	6346.9771140767
53	717	24.4	6346.9756513522
53	718	24.5	6346.9741880515
53	719	24.6	6346.972727234
53	720	24.7	6346.971268796
53	721	24.8	6346.9698136613
53	760	24.9	6346.9683563822
53	761	25	6346.9668958805
53	762	25.1	6346.9654361103
53	771	25.2	6346.9639845722
53	772	25.3	6346.9625217528
53	773	25.4	6346.9610596976
53	774	25.5	6346.9598593003
53	775	25.6	6346.9593357471
53	776	25.7	6346.9588144042
53	777	25.8	6346.9582905233
53	778	25.9	6346.9577703292
53	779	26	6346.9572501785
53	780	26.1	6346.9567299338
53	781	26.2	6346.9562085854
53	782	26.3	6346.9556861917
53	783	26.4	6346.9551643481
53	784	26.5	6346.9546411254
53	785	26.6	6346.9541178209
53	794	26.7	6346.9535975958
53	795	26.8	6346.9530760621
53	816	26.9	6346.9525537753
53	817	27	6346.9520321928
53	818	27.1	6346.9515136879
53	819	27.2	6346.9510100916
53	820	27.3	6346.9505168639
53	821	27.4	6346.9500405501
53	822	27.5	6346.9495757542
53	823	27.6	6346.949121151
53	824	27.7	6346.9486811661
53	825	27.8	6346.9482554269
53	858	27.9	6346.9478410118
53	909	28	6346.947438661
53	924	28.1	6346.9470471232
53	925	28.2	6346.9466675081
53	926	28.3	6346.9463002767
53	927	28.4	6346.9459453541
53	928	28.5	6346.9456031629
53	929	28.6	6346.9452688704
53	930	28.7	6346.9449472594
53	931	28.8	6346.9446406555
53	932	28.9	6346.944342556
53	933	29	6346.9440549712
53	934	29.1	6346.9437783383
53	935	29.2	6346.9435141867
53	936	29.3	6346.9432576833
53	993	29.4	6346.9430136971
53	994	29.5	6346.9427781031
53	995	29.6	6346.9425536661
53	996	29.7	6346.9423411152
53	1011	29.8	6346.9421351186
53	1012	29.9	6346.9419413961
53	1013	30	6346.9417581991
53	1014	30.1	6346.9415808184
53	1015	30.2	6346.9414162611
53	1016	30.3	6346.9412572536
53	1017	30.4	6346.9411098563
53	1018	30.5	6346.9409667999
53	1019	30.6	6346.9408331111
53	1020	30.7	6346.9407096871
53	1021	30.8	6346.9405764556
53	1022	30.9	6346.9404334164
53	1023	31	6346.9402805695
53	1024	31.1	6346.9401179151
53	1039	31.2	6346.863572003
53	1040	31.3	6346.59813086
53	1041	31.4	6346.3181757013
53	1042	31.5	6345.9726906986
53	1043	31.6	6345.4810397728
53	1044	31.7	6344.9676496491
53	1045	31.8	6344.442042083
53	1046	31.9	6344.0996091168
53	1047	32	6343.7494965814
53	1048	32.1	6343.640173711
53	1049	32.2	6343.6404294971
53	1050	32.3	6343.6406928439
53	1051	32.4	6343.6409621708
53	1052	32.5	6343.6412410158
53	1091	32.6	6343.6415262512
53	1092	32.7	6343.6418190504
53	1093	32.8	6343.642121014
53	1114	32.9	6343.6424321644
53	1115	33	6343.642751603
53	1148	33.1	6343.6430804773
53	1149	33.2	6343.6434181209
53	1150	33.3	6343.6437625475
53	1151	33.4	6343.6441160182
53	1152	33.5	6343.6444778101
53	1167	33.6	6343.6448470209
53	1168	33.7	6343.6452243782
53	1177	33.8	6343.6456082725
53	1178	33.9	6343.6460000305
53	1217	34	6343.6463990656
53	1218	34.1	6343.6468066605
53	1219	34.2	6343.647220285
53	1276	34.3	6343.6476433162
53	1291	34.4	6343.6480754954
53	1292	34.5	6343.648514463
53	1293	34.6	6343.6489609159
53	1294	34.7	6343.6494149693
53	1295	34.8	6343.6498762016
53	1296	34.9	6343.6503451077
53	1297	35	6343.6508213354
53	1298	35.1	6343.6513033644
53	1299	35.2	6343.6517950872
53	1300	35.3	6343.6522950894
53	1301	35.4	6343.6528016255
53	1302	35.5	6343.653317901
53	1303	35.6	6343.653839829
53	1304	35.7	6343.6543608494
53	1305	35.8	6343.6548809801
53	1306	35.9	6343.6554002554
53	1307	36	6343.6559236011
53	1308	36.1	6343.6564464235
53	1309	36.2	6343.6569662876
53	1310	36.3	6343.6574898212
53	1311	36.4	6343.6580108282
53	1312	36.5	6343.6585329211
53	1313	36.6	6343.6590529124
53	1314	36.7	6343.6595745737
53	1315	36.8	6343.6602653372
53	1316	36.9	6343.6617199038
53	1317	37	6343.6631808917
53	1318	37.1	6343.6646368768
53	1319	37.2	6343.6660998152
53	1320	37.3	6343.6675603834
53	1321	37.4	6343.6690234655
53	1322	37.5	6343.6704794238
53	1323	37.6	6343.6719338159
53	1324	37.7	6343.6733943128
53	1325	37.8	6343.6748523474
53	1326	37.9	6343.6763068584
53	1327	38	6343.6777671196
53	1328	38.1	6343.6792248298
53	1329	38.2	6343.680679349
53	1330	38.3	6343.6821332539
53	1331	38.4	6343.6835969991
53	1332	38.5	6343.6850614182
53	1333	38.6	6343.6865142516
53	1366	38.7	6343.6879684103
15	40	2.3	1.4309021354274
15	41	2.4	1.5843964237599
15	42	2.5	1.6612379235842
15	43	2.6	1.860333995049
15	44	2.7	1.902440209896
15	45	2.8	2.0964817650527
15	46	2.9	1.9353337638279
15	47	3	2.426400888677
15	48	3.1	2.068065907182
15	63	3.2	2.4008393576396
15	64	3.3	2.4992495751963
15	65	3.4	2.4007332520247
15	66	3.5	2.5190458699115
15	67	3.6	2.7111150771871
15	68	3.7	2.825286502975
15	69	3.8	2.9810105426588
15	70	3.9	2.7164707756693
15	71	4	3.5055670321553
15	72	4.1	3.9229908696862
15	81	4.2	3.9032641762101
15	82	4.3	3.691535583917
15	83	4.4	3.7080152136665
15	84	4.5	3.07797652119
15	85	4.6	3.0231592460158
15	86	4.7	4.4550390490054
15	87	4.8	2.7225656697675
15	88	4.9	2.1275006151995
15	89	5	0.973
15	90	5.1	1.3575205934279
15	99	5.2	0.973
15	100	5.3	2.3020786255489
15	101	5.4	1.613330357252
15	102	5.5	1.7400320261296
15	103	5.6	0.973
15	104	5.7	0.973
15	105	5.8	1.3189556856636
15	106	5.9	1.8590592321141
15	107	6	1.6720726179372
15	108	6.1	1.6437285729119
15	117	6.2	0.973
15	118	6.3	1.9318826708182
15	119	6.4	0.973
15	120	6.5	2.4979280309226
15	121	6.6	0.973
15	122	6.7	1.8214790696689
15	123	6.8	1.4397396496705
15	124	6.9	0.973
15	125	7	1.2989113881542
15	126	7.1	1.5904663899807
15	141	7.2	0.973
15	142	7.3	2.1407968259651
15	143	7.4	0.973
15	144	7.5	1.9897127095334
15	145	7.6	1.2639434630379
15	146	7.7	1.9428731750212
15	147	7.8	1.657927478995
15	148	7.9	0.973
15	149	8	1.5985224778862
15	150	8.1	0.973
15	165	8.2	2.9293050580188
15	166	8.3	1.307547813473
15	167	8.4	1.4376924006143
15	168	8.5	0.973
15	169	8.6	0.973
15	170	8.7	2.6310450325761
15	171	8.8	0.973
15	172	8.9	0.973
15	173	9	1.5418685582854
15	174	9.1	1.6083992242353
15	183	9.2	0.973
15	184	9.3	2.5269470287343
15	185	9.4	0.973
15	186	9.5	2.530400396084
15	187	9.6	0.973
15	188	9.7	1.3157649973296
15	189	9.8	1.4647375384738
15	190	9.9	0.973
15	191	10	0.973
15	192	10.1	0.973
15	213	10.2	0.973
15	214	10.3	0.973
15	215	10.4	0.973
15	216	10.5	0.973
15	217	10.6	0.973
15	218	10.7	0.973
15	219	10.8	3.519540124054
15	220	10.9	3.6959823526564
15	221	11	3.8725678748446
15	222	11.1	4.0493064325257
15	223	11.2	3.9302027815684
15	224	11.3	4.3860673205522
15	225	11.4	4.5633052983073
15	226	11.5	4.7407343325522
15	227	11.6	4.0864455635657
15	228	11.7	0.973
15	229	11.8	0.973
15	230	11.9	2.6341046809522
15	231	12	0.973
15	232	12.1	0.973
15	259	12.2	1.3530137205716
15	260	12.3	2.2140644323154
15	261	12.4	1.2206819231969
15	262	12.5	2.1494481624532
15	263	12.6	0.973
15	264	12.7	1.3822034021979
15	265	12.8	2.1761684148053
15	266	12.9	0.973
15	267	13	1.6187025887996
15	268	13.1	0.973
15	269	13.2	0.973
15	270	13.3	1.3705412809096
15	271	13.4	2.1172424596938
15	272	13.5	1.7539603225097
15	273	13.6	0.973
15	274	13.7	2.504697933786
15	275	13.8	0.973
15	276	13.9	0.973
15	277	14	0.973
15	278	14.1	2.2742978137323
15	299	14.2	1.3317863683711
15	300	14.3	1.9629814048944
15	301	14.4	0.973
15	302	14.5	1.4968628650732
15	303	14.6	1.3440469106841
15	304	14.7	1.3968549676025
15	325	14.8	0.973
15	326	14.9	0.973
15	327	15	2.6832419539293
15	328	15.1	0.973
15	337	15.2	2.3570451398132
15	338	15.3	1.3588100511455
15	339	15.4	0.973
15	340	15.5	2.4932503345928
15	341	15.6	0.973
15	342	15.7	0.973
15	343	15.8	0.973
15	344	15.9	1.4617495544126
15	345	16	1.3265335179011
15	346	16.1	1.310949829755
15	373	16.2	2.8360671352839
15	374	16.3	0.973
15	375	16.4	1.7693481841027
15	376	16.5	1.2642326384259
15	377	16.6	0.973
15	378	16.7	1.9794918801205
15	379	16.8	0.973
15	380	16.9	2.0799224442716
15	381	17	0.973
15	382	17.1	2.5977040009149
15	415	17.2	0.973
15	416	17.3	1.8764037107917
15	417	17.4	0.973
15	418	17.5	2.7469433045664
15	419	17.6	0.973
15	434	17.7	0.973
15	435	17.8	1.400609505929
15	436	17.9	0.973
15	437	18	0.973
15	438	18.1	0.973
15	483	18.2	0.973
15	484	18.3	0.973
15	485	18.4	0.973
15	530	18.5	0.973
15	531	18.6	0.973
15	532	18.7	0.973
15	533	18.8	3.5755831703194
15	534	18.9	3.7520698692694
15	535	19	3.9287029569355
15	536	19.1	4.1054921752249
15	581	19.2	4.2824472660446
15	582	19.3	4.4595779713019
15	609	19.4	4.636894032904
15	610	19.5	4.814405192758
15	611	19.6	2.641032564596
15	612	19.7	0.973
15	613	19.8	1.3928709568039
15	614	19.9	1.3998161727696
15	615	20	2.0219745912814
15	616	20.1	1.295033494866
15	617	20.2	0.973
15	618	20.3	0.973
15	627	20.4	0.973
15	628	20.5	0.973
15	629	20.6	0.973
15	630	20.7	0.973
15	631	20.8	0.973
15	632	20.9	0.973
15	633	21	0.973
15	634	21.1	0.973
15	635	21.2	0.973
15	636	21.3	3.5686344575501
15	637	21.4	3.7451155898628
15	638	21.5	3.921742727171
15	639	21.6	4.0985256113818
15	640	21.7	4.2754739844024
15	641	21.8	4.4525975881399
15	642	21.9	4.2331448944059
15	643	22	4.7867747567496
15	644	22.1	3.1830579052611
15	645	22.2	0.973
15	646	22.3	0.973
15	647	22.4	2.5868691650799
15	648	22.5	0.973
15	649	22.6	1.4396845114623
15	650	22.7	1.6911436737549
15	651	22.8	0.973
15	652	22.9	2.4441695498108
15	653	23	0.973
15	654	23.1	1.8513286977815
15	655	23.2	1.6231515196716
15	656	23.3	1.6892714169238
15	707	23.4	0.973
15	708	23.5	1.4549629051595
15	709	23.6	2.6781563026612
15	710	23.7	0.973
15	711	23.8	1.3909965622051
15	712	23.9	2.1399114767818
15	713	24	0.973
15	714	24.1	0.973
15	715	24.2	2.5478066496597
15	716	24.3	0.973
15	717	24.4	0.973
15	718	24.5	0.973
15	719	24.6	1.4948643607927
15	720	24.7	1.2667998369699
15	721	24.8	2.6359058389369
15	760	24.9	1.8110140964151
15	761	25	0.973
15	762	25.1	1.9041588607433
15	771	25.2	0.973
15	772	25.3	0.973
15	773	25.4	2.5672112297237
15	774	25.5	0.973
15	775	25.6	2.0438723723977
15	776	25.7	0.973
15	777	25.8	1.7031356211145
15	778	25.9	0.973
15	779	26	0.973
15	780	26.1	2.1221865328824
15	781	26.2	1.7656155901905
15	782	26.3	1.2548110538259
15	783	26.4	0.973
15	784	26.5	0.973
15	785	26.6	0.973
15	794	26.7	0.973
15	795	26.8	0.973
15	816	26.9	0.973
15	817	27	0.973
15	818	27.1	0.973
15	819	27.2	0.973
15	820	27.3	0.973
15	821	27.4	3.5101544387711
15	822	27.5	3.6865893148967
15	823	27.6	3.8631669661848
15	824	27.7	4.0398971345424
15	825	27.8	4.2167895618768
15	858	27.9	4.3938539900951
15	909	28	4.5711001611045
15	924	28.1	4.7485378168121
15	925	28.2	3.9333098303491
15	926	28.3	0.973
15	927	28.4	3.579742918535
15	928	28.5	3.9547472751562
15	929	28.6	3.8379180627717
15	930	28.7	4.1709886717079
15	931	28.8	4.2549278922926
15	932	28.9	4.3216721940835
15	933	29	3.8195480401023
15	934	29.1	3.7144560447903
15	935	29.2	5.5024448740236
15	936	29.3	4.4849068233549
15	993	29.4	5.6264642432739
15	994	29.5	5.3691933719784
15	995	29.6	4.5085673855989
15	996	29.7	6.5353792031626
15	1011	29.8	6.5711771861739
15	1012	29.9	4.4969385083881
15	1013	30	4.4524729541993
15	1014	30.1	4.6579890842827
15	1015	30.2	4.6015309127197
15	1016	30.3	6.2217325158465
15	1017	30.4	7.394001386947
15	1018	30.5	6.5023843299601
15	1019	30.6	6.2416103167912
15	1020	30.7	6.1542818502502
15	1021	30.8	6.7172338338398
15	1022	30.9	7.3581480775181
15	1023	31	6.8236591535629
15	1024	31.1	5.2078133518611
15	1039	31.2	5.2106665610403
15	1040	31.3	5.2424699938908
15	1041	31.4	8.475545219982
15	1042	31.5	6.8072508430626
15	1043	31.6	0.973
15	1044	31.7	0.973
15	1045	31.8	0.973
15	1046	31.9	0.973
15	1047	32	0.973
15	1048	32.1	0.973
15	1049	32.2	0.973
15	1050	32.3	0.973
15	1051	32.4	0.973
15	1052	32.5	0.973
15	1091	32.6	0.973
15	1092	32.7	0.973
15	1093	32.8	0.973
15	1114	32.9	0.973
15	1115	33	0.973
15	1148	33.1	0.973
15	1149	33.2	0.973
15	1150	33.3	0.973
15	1151	33.4	0.973
15	1152	33.5	0.973
15	1167	33.6	0.973
15	1168	33.7	0.973
15	1177	33.8	0.973
15	1178	33.9	0.973
15	1217	34	0.973
15	1218	34.1	0.973
15	1219	34.2	0.973
15	1276	34.3	0.973
15	1291	34.4	0.973
15	1292	34.5	0.973
15	1293	34.6	0.973
15	1294	34.7	0.973
15	1295	34.8	0.973
15	1296	34.9	0.973
15	1297	35	0.973
15	1298	35.1	0.973
15	1299	35.2	0.973
15	1300	35.3	0.973
15	1301	35.4	0.973
15	1302	35.5	0.973
15	1303	35.6	0.973
15	1304	35.7	0.973
15	1305	35.8	0.973
15	1306	35.9	0.973
15	1307	36	0.973
15	1308	36.1	0.973
15	1309	36.2	0.973
15	1310	36.3	0.973
15	1311	36.4	0.973
15	1312	36.5	0.973
15	1313	36.6	0.973
15	1314	36.7	0.973
15	1315	36.8	0.973
15	1316	36.9	0.973
15	1317	37	0.973
15	1318	37.1	0.973
15	1319	37.2	0.973
15	1320	37.3	0.973
15	1321	37.4	0.973
15	1322	37.5	0.973
15	1323	37.6	0.973
15	1324	37.7	0.973
15	1325	37.8	0.973
15	1326	37.9	0.973
15	1327	38	0.973
15	1328	38.1	0.973
15	1329	38.2	0.973
15	1330	38.3	0.973
15	1331	38.4	0.973
15	1332	38.5	1.1127371825228
15	1333	38.6	1.1128108509862
15	1366	38.7	0.973
15	1367	38.8	1.1123922702741
15	1424	38.9	1.1120722606745
15	1445	39	1.1118650758436
15	1446	39.1	1.111740608845
15	1479	39.2	1.111564289249
15	1480	39.3	1.1117509741103
15	1481	39.4	1.1114927324587
15	1482	39.5	1.1112995747695
15	1483	39.6	1.1112068642559
15	1484	39.7	1.111203130763
15	1485	39.8	1.1110732863605
15	1486	39.9	1.1110129640272
15	1487	40	1.1108876714575
15	1488	40.1	1.1108427917984
15	1489	40.2	1.1107409447098
15	1490	40.3	1.1106893300544
15	1491	40.4	1.1106267629752
15	1492	40.5	1.1105812820549
15	1531	40.6	1.1104910546391
15	1532	40.7	1.1104529548624
15	1553	40.8	1.1104174061223
15	1562	40.9	1.1103798806157
15	1563	41	1.1103481994451
15	1564	41.1	1.1103116634792
15	1603	41.2	1.1102803165204
15	1604	41.3	1.1102559012938
15	1605	41.4	1.1102361531405
15	1606	41.5	1.110211093554
15	1607	41.6	1.1101977592796
15	1608	41.7	1.1101759246938
15	1609	41.8	1.1101560633388
15	1610	41.9	1.1101472827742
15	1611	42	1.1101319280548
15	1644	42.1	1.1101146656162
15	1645	42.2	1.110105494818
15	1690	42.3	1.1100979197699
15	1691	42.4	1.110087579319
15	1692	42.5	1.1100762072136
15	1693	42.6	1.1100701209683
15	1720	42.7	1.1100633951696
15	1721	42.8	1.1100582109134
15	1722	42.9	1.110052691603
15	1723	43	1.1100464355762
15	1724	43.1	1.1100434415222
15	1725	43.2	1.1100387493546
15	1726	43.3	1.1100342055429
15	1727	43.4	1.1100306727905
15	1772	43.5	1.1100285883091
15	1799	43.6	1.1100249581417
15	1800	43.7	1.1100230703052
15	1801	43.8	1.1100202219603
15	1802	43.9	1.1100188268457
15	1803	44	1.1100169025034
15	1804	44.1	1.1100147991324
15	1805	44.2	1.1100136334375
15	1832	44.3	1.1100120767313
15	1833	44.4	1.1100109441719
15	1834	44.5	1.1100103082543
15	1835	44.6	1.1100089092817
15	1836	44.7	1.1100082457251
15	1837	44.8	1.1100073388872
15	1838	44.9	1.1100067777728
15	1839	45	1.1100062087315
15	1840	45.1	1.110005455083
15	1841	45.2	1.1100049645635
15	1842	45.3	1.1100044536124
15	1843	45.4	1.1100040080767
15	1844	45.5	1.1100036583171
15	1845	45.6	1.1100032148142
15	1846	45.7	1.1100030069442
15	1885	45.8	1.1100026398483
15	1886	45.9	1.1100024413883
15	1887	46	1.1100021988049
15	1888	46.1	1.1100019122241
15	2265	46.2	1.1100017515474
15	2266	46.3	1.1100016102365
15	2267	46.4	1.1100014644544
15	2268	46.5	1.1100012597423
15	2269	46.6	1.1100011699429
15	2270	46.7	1.110001066024
15	2271	46.8	1.1100009412784
15	2272	46.9	1.1100008549683
15	2273	47	1.1100007636755
15	2274	47.1	1.1100007044974
15	2275	47.2	1.1100006300776
15	2276	47.3	1.1100005825447
15	2277	47.4	1.1100005037964
15	2278	47.5	1.1100004606197
15	2279	47.6	1.1100004217358
15	2280	47.7	1.1100003713776
15	2281	47.8	1.1100003448017
15	2302	47.9	1.1100003005427
15	2311	48	1.110000274889
15	2312	48.1	1.1100002546828
15	2313	48.2	1.1100002200711
15	2314	48.3	1.1100002017357
15	2315	48.4	1.1100001889344
15	2316	48.5	1.1100001617826
15	2317	48.6	1.1100001525413
15	2318	48.7	1.1100001370822
15	2319	48.8	1.1100001237685
15	2320	48.9	1.1100001076659
15	2321	49	1.110000098166
15	2322	49.1	1.1100000914177
15	2323	49.2	1.110000079316
15	2324	49.3	1.1100000743547
15	2325	49.4	1.1100000647837
15	2358	49.5	1.1100000590906
15	2391	49.6	1.1100000531461
15	2392	49.7	1.1100000477723
15	2393	49.8	1.1100000444485
15	2394	49.9	1.1100000400209
15	2395	50	1.1100000352046
15	2396	50.1	1.110000032723
15	2397	50.2	1.1100000285155
15	2398	50.3	1.1100000264266
15	2399	50.4	1.110000024293
15	2444	50.5	1.1100000212533
15	2445	50.6	1.1100000191988
15	2446	50.7	1.1100000178308
15	2447	50.8	1.1100000161945
15	2448	50.9	1.1100000142788
15	2493	51	1.1100000129173
15	2494	51.1	1.1100000117649
15	2495	51.2	1.1100000105788
15	2496	51.3	1.110000009515
15	2497	51.4	1.1100000083317
15	2498	51.5	1.1100000077612
15	2543	51.6	1.1100000068041
15	2544	51.7	1.1100000061359
15	2583	51.8	1.1100000056302
15	2648	51.9	1.110000005168
15	2649	52	1.1100000045459
15	2650	52.1	1.273712230086
15	2651	52.2	1.4505181986848
15	2652	52.3	1.5599548338697
15	2653	52.4	1.7291697858535
15	2654	52.5	1.7771705809636
15	2655	52.6	1.8616407708302
15	2656	52.7	2.1140090723769
15	2657	52.8	2.2036968699579
15	2658	52.9	2.5285933609439
15	2659	53	2.5203916716968
15	2660	53.1	2.289707506978
15	2661	53.2	2.8684402988351
15	2662	53.3	2.4463057897266
15	2663	53.4	3.0274375049624
15	2664	53.5	2.6463319205551
15	2665	53.6	3.1244197156386
15	2666	53.7	2.5101994867725
15	2743	53.8	3.3728832167819
15	2744	53.9	2.6066511092932
15	2745	54	2.7319242977913
15	2746	54.1	3.4229422784012
15	2747	54.2	3.7415351718048
15	2748	54.3	2.985649988391
15	2749	54.4	3.5587520571511
15	2750	54.5	4.061927915118
15	2751	54.6	4.5514395968925
15	2752	54.7	4.448066026213
15	2753	54.8	3.2208883415475
15	2754	54.9	4.5798349787904
15	2755	55	3.4263197767998
15	2764	55.1	4.8153942270719
15	2765	55.2	5.1301824827374
15	2766	55.3	5.4657682629878
15	2767	55.4	4.3676593824979
15	2768	55.5	3.7886580500682
15	2769	55.6	4.3611878738565
15	2802	55.7	5.1970577261936
15	2847	55.8	6.1823989693876
15	2848	55.9	4.8424376956166
15	2849	56	4.1965262830646
15	2850	56.1	5.2747346970823
15	2851	56.2	5.5465369437779
15	2852	56.3	6.1976785216732
15	2853	56.4	5.5146596743276
15	2854	56.5	5.4692739394961
15	2893	56.6	5.6145989923662
15	3002	56.7	5.5174055648408
15	3003	56.8	7.2946070400062
15	3004	56.9	6.8214176842956
15	3005	57	5.8432824240066
15	3006	57.1	6.5083886372431
15	3007	57.2	5.4936597901068
15	3028	57.3	7.5651429220485
15	3029	57.4	7.0945518300495
15	3056	57.5	6.7713175515757
15	3057	57.6	7.1707945161049
15	3058	57.7	8.6204120753993
15	3059	57.8	7.0516012215118
15	3060	57.9	7.8031515903346
15	3061	58	5.8372225352372
15	3062	58.1	9.0673285695863
15	3063	58.2	7.2447843338377
15	3064	58.3	7.0869899072563
15	3065	58.4	7.463395084625
15	3066	58.5	9.8437141237293
15	3067	58.6	9.2315510219954
15	3068	58.7	10.200332271775
15	3069	58.8	7.63826556146
15	3070	58.9	7.0388156878527
15	3071	59	5.306937771825
15	3072	59.1	0.973
15	3073	59.2	3.7453137274146
15	3074	59.3	0.973
15	3075	59.4	2.0827876674847
15	3076	59.5	3.2585510429433
15	3077	59.6	0.973
15	3078	59.7	3.604386548709
15	3079	59.8	3.4705670417178
15	3080	59.9	0.973
15	3081	60	1.1000386707374
15	3082	60.1	3.7594208574193
15	3083	60.2	1.6683929515306
15	3084	60.3	1.2877785752268
15	3085	60.4	2.242270430357
15	3086	60.5	1.5677492670704
15	3087	60.6	0.973
15	3088	60.7	4.4100895747003
15	3089	60.8	0.973
15	3142	60.9	4.6348281315846
15	3143	61	1.5072993371959
15	3144	61.1	3.3293098948249
15	3145	61.2	0.973
15	3240	61.3	1.3233601406458
15	3241	61.4	2.7943781018927
15	3292	61.5	3.2860365196006
15	3293	61.6	2.5746283573773
15	3338	61.7	1.3093880079647
15	3389	61.8	3.0300672331273
15	3390	61.9	0.973
15	3391	62	2.3112702751632
15	3392	62.1	1.7325147660367
15	3401	62.2	0.973
15	3402	62.3	1.5073781394659
15	3403	62.4	4.1920779410604
15	3404	62.5	0.973
15	3405	62.6	1.9276150441047
15	3406	62.7	3.9038313163382
15	3407	62.8	1.5644073554775
15	3408	62.9	2.8365237693815
15	3409	63	1.770118442788
15	3410	63.1	0.973
15	3411	63.2	4.732343128358
15	3412	63.3	0.973
15	3413	63.4	3.9257286782328
15	3414	63.5	0.973
15	3415	63.6	1.4104187514305
15	3416	63.7	2.111860478874
15	3417	63.8	3.4125056240364
15	3462	63.9	0.973
15	3501	64	1.6943558800858
15	3502	64.1	2.322328025287
15	3541	64.2	2.8574250443624
15	3542	64.3	3.181196805305
15	3543	64.4	0.973
15	3544	64.5	0.973
15	3545	64.6	4.4473374926457
15	3546	64.7	0.973
15	3547	64.8	0.973
15	3548	64.9	4.7763026074652
15	3549	65	1.279441882644
15	3550	65.1	1.4313702851102
15	3551	65.2	1.2800904446488
15	3552	65.3	3.9787726474761
15	3553	65.4	0.973
15	3554	65.5	1.172071444814
15	3555	65.6	1.6446245641106
15	3556	65.7	2.7872398226544
15	3557	65.8	3.2308673144649
15	3608	65.9	0.973
15	3609	66	3.8797123944621
15	3610	66.1	3.527903889035
15	3661	66.2	2.621283205249
15	3706	66.3	0.973
15	3707	66.4	2.8382804269112
15	3708	66.5	2.4753979723763
15	3709	66.6	4.8658468826226
15	3710	66.7	0.973
15	3761	66.8	2.6729087482247
15	3812	66.9	2.7964256843536
15	3813	67	1.5878725185728
15	3814	67.1	2.8030891877954
15	3815	67.2	0.973
15	3816	67.3	2.7686818472648
15	3817	67.4	1.8702456601228
15	3818	67.5	2.1811610087561
15	3875	67.6	1.5772124405943
15	3876	67.7	2.733775039999
15	3933	67.8	2.6034088943349
15	3934	67.9	1.6172950073157
15	3961	68	1.3411892714364
15	3962	68.1	0.973
15	3963	68.2	3.6135493011597
15	3964	68.3	1.7241223640456
15	3965	68.4	1.1650185265408
15	3966	68.5	4.7254757099209
15	3967	68.6	0.973
15	3968	68.7	3.4029774216689
15	3969	68.8	0.973
15	3970	68.9	2.0008131717375
15	3971	69	3.5283769322969
15	3972	69.1	0.973
15	3973	69.2	3.2316407948108
15	3982	69.3	2.1855259379461
15	3983	69.4	2.6888148374672
15	3992	69.5	0.973
15	3993	69.6	4.8270970924586
15	3994	69.7	2.5500783335315
15	3995	69.8	2.8936108478916
15	3996	69.9	0.973
15	4041	70	2.0963531126158
15	4086	70.1	2.0354734606336
15	4087	70.2	0.973
15	4088	70.3	2.6329036013903
15	4089	70.4	4.6227793024144
15	4122	70.5	0.973
15	4123	70.6	5.567228691301
15	4124	70.7	0.973
15	4125	70.8	3.833510283247
15	4170	70.9	0.973
15	4171	71	3.0050445384001
15	4172	71.1	3.3918477010261
15	4173	71.2	3.103957495391
15	4174	71.3	0.973
15	4175	71.4	1.847899983545
15	4176	71.5	1.5275410070112
15	4177	71.6	4.7094862448675
15	4178	71.7	0.973
15	4179	71.8	2.5627729735516
15	4180	71.9	2.3421432007542
15	4181	72	4.1680086465521
15	4182	72.1	0.973
15	4183	72.2	2.9509309548582
15	4216	72.3	4.5897168652403
15	4217	72.4	0.973
15	4218	72.5	3.2518839019517
15	4219	72.6	0.973
15	4264	72.7	0.973
15	4265	72.8	0.973
15	4266	72.9	0.973
15	4311	73	0.973
15	4312	73.1	0.973
15	4313	73.2	0.973
15	4314	73.3	0.973
15	4315	73.4	0.973
15	4316	73.5	0.973
15	4317	73.6	0.973
15	4318	73.7	0.973
15	4319	73.8	0.973
15	4320	73.9	0.973
15	4321	74	0.973
15	4322	74.1	0.973
15	4323	74.2	0.973
15	4324	74.3	0.973
15	4325	74.4	0.973
15	4326	74.5	0.973
15	4327	74.6	0.973
15	4328	74.7	0.973
15	4329	74.8	0.973
15	4330	74.9	0.973
15	4331	75	0.973
15	4333	75.1	0.973
15	4334	75.2	0.973
15	4335	75.3	0.973
15	4336	75.4	0.973
15	4337	75.5	0.973
15	4338	75.6	0.973
15	4377	75.7	0.973
15	4378	75.8	0.973
15	4379	75.9	0.973
15	4380	76	0.973
15	4381	76.1	0.973
15	4432	76.2	3.6249595204246
15	4433	76.3	3.8014862051955
15	4442	76.4	3.9781620049959
15	4443	76.5	3.138105029326
15	4444	76.6	4.2707592162206
15	4445	76.7	4.4478780268933
15	4446	76.8	4.6251815507409
15	4447	76.9	4.8026795296704
15	4448	77	4.9803817055892
15	4449	77.1	4.6910880376111
15	4450	77.2	3.5887611164173
15	4495	77.3	5.0529251350819
15	4496	77.4	3.6138518781701
15	4497	77.5	4.657536849832
15	4498	77.6	3.426687580243
15	4537	77.7	0.973
15	4538	77.8	0.973
15	4577	77.9	0.973
15	4578	78	0.973
15	4579	78.1	0.973
15	4580	78.2	2.2386195279782
15	4613	78.3	1.6753501467293
15	4614	78.4	0.973
15	4615	78.5	2.0636793881723
15	4616	78.6	1.4773488999646
15	4617	78.7	0.973
15	4618	78.8	0.973
15	4619	78.9	1.7067524509954
15	4620	79	1.2894407418704
15	4621	79.1	0.973
15	4622	79.2	1.4365155383581
15	4623	79.3	2.6907773838244
15	4624	79.4	0.973
15	4669	79.5	1.4718570694024
15	4670	79.6	1.7618811911194
15	4705	79.7	0.973
15	4706	79.8	2.2736833935034
15	4707	79.9	0.973
15	4708	80	0.973
15	4709	80.1	2.0427728473491
15	4710	80.2	1.3243131344722
15	4711	80.3	1.6307509438741
15	4712	80.4	1.6932457571239
15	4713	80.5	0.973
15	4714	80.6	2.0765992231892
15	4715	80.7	0.973
15	4716	80.8	2.6295766571038
15	4717	80.9	0.973
15	4718	81	2.2480413187848
15	4769	81.1	0.973
15	4770	81.2	1.5888366675966
15	4771	81.3	1.6603461698578
15	4772	81.4	1.5366196276718
15	4773	81.5	0.973
15	4774	81.6	1.9657156316495
15	4775	81.7	2.3277997752779
15	4776	81.8	0.973
15	4821	81.9	1.4842712955444
15	4822	82	1.7304049964606
15	4823	82.1	1.3214933949151
15	4824	82.2	1.7977451112371
15	4825	82.3	1.4344945732522
15	4826	82.4	0.973
15	4909	82.5	1.5751615943648
15	4910	82.6	1.8126681122735
15	4911	82.7	2.0879310097235
15	4956	82.8	0.973
15	4957	82.9	1.9717719390888
15	4958	83	1.5524753761675
15	4959	83.1	1.4259434487891
15	4960	83.2	0.973
15	4961	83.3	1.9940381231373
15	4962	83.4	1.2137606700512
15	4977	83.5	0.973
15	4978	83.6	1.8736881772005
15	4979	83.7	1.9867236863481
15	5030	83.8	1.5045977547653
15	5031	83.9	0.973
15	5032	84	0.973
15	5033	84.1	1.8100046406831
15	5034	84.2	1.9849844700306
15	5067	84.3	0.973
15	5068	84.4	2.1121053180577
15	5069	84.5	0.973
15	5070	84.6	1.9362074400782
15	5071	84.7	0.973
15	5072	84.8	1.3757697872089
15	5073	84.9	2.2852858007047
15	5074	85	0.973
15	5075	85.1	0.973
15	5076	85.2	1.5660368174987
15	5077	85.3	1.5038368915518
15	5078	85.4	1.6883310513814
15	5079	85.5	1.3062588118795
15	5080	85.6	1.616076572256
15	5081	85.7	1.4571471949853
15	5120	85.8	0.973
15	5121	85.9	1.4580676988089
15	5122	86	2.5690824127444
15	5123	86.1	0.973
15	5156	86.2	2.1563000873758
15	5157	86.3	0.973
15	5158	86.4	2.3026064684325
15	5159	86.5	0.973
15	5160	86.6	1.4699749016268
15	5211	86.7	1.4652338910621
15	5212	86.8	0.973
15	5213	86.9	1.8189917007968
15	5214	87	0.973
15	5254	87.1	2.6085939309503
15	5255	87.2	0.973
15	5256	87.3	0.973
15	5257	87.4	1.6368364055275
15	5258	87.5	0.973
15	5309	87.6	2.3261781343384
15	5310	87.7	1.2495583641909
15	5361	87.8	2.1372182620991
15	5362	87.9	1.308890001854
15	5363	88	0.973
15	5364	88.1	1.4116825287106
15	5365	88.2	1.2441090590396
15	5366	88.3	2.6284836171037
15	5367	88.4	1.4506370194987
15	5368	88.5	0.973
15	5369	88.6	0.973
15	5370	88.7	1.291740728278
15	5371	88.8	1.9370198489732
15	5422	88.9	2.2550807508193
15	5423	89	0.973
15	5424	89.1	2.8282815144652
15	5425	89.2	0.973
15	5482	89.3	0.973
15	5483	89.4	1.3425353732427
15	5484	89.5	1.467452100423
15	5485	89.6	1.8184694585962
15	5486	89.7	0.973
15	5487	89.8	1.4555961216614
15	5532	89.9	1.224479891795
15	5533	90	0.973
15	5534	90.1	1.7564090368747
15	5535	90.2	1.6494811887455
15	5536	90.3	0.973
15	5537	90.4	1.6711721218654
15	5538	90.5	0.973
15	5577	90.6	1.9341808844286
15	5578	90.7	1.7949347999129
15	5579	90.8	0.973
15	5580	90.9	1.7964903758404
15	5581	91	0.973
15	5582	91.1	2.2478940831579
15	5583	91.2	1.6789375515231
15	5616	91.3	1.6039234109586
14	40	2.3	2.4777397813476
14	41	2.4	2.4512885773154
14	42	2.5	2.1809804627107
14	43	2.6	2.3941136606723
14	44	2.7	2.1268818289131
14	45	2.8	2.2920502375518
14	46	2.9	1.6898664032656
14	47	3	2.4546854435278
14	48	3.1	1.5923508903848
14	63	3.2	2.0138064404013
14	64	3.3	2.0000768283615
14	65	3.4	1.71745660624
14	66	3.5	1.7681026779115
14	67	3.6	1.9014148032991
14	68	3.7	1.9215971733676
14	69	3.8	1.9843194504501
14	70	3.9	1.5934962075437
14	71	4	2.318484536279
14	72	4.1	2.5755732625723
14	81	4.2	2.4054226770764
14	82	4.3	2.0975643285317
14	83	4.4	2.0150650135707
14	84	4.5	1.4269468483282
14	85	4.6	1.3392482108204
14	86	4.7	2.3778175380314
14	87	4.8	1.0133400654376
14	88	4.9	0.5533305847086
14	89	5	-0.40199487328064
14	90	5.1	-0.024071145523337
14	99	5.2	-0.44526202066336
14	100	5.3	0.68768543063197
14	101	5.4	0.16679410189391
14	102	5.5	0.2597720684018
14	103	5.6	-0.6816470941063
14	104	5.7	-0.22804345020559
14	105	5.8	-0.052323130448348
14	106	5.9	0.35535233570262
14	107	6	0.2120749755064
14	108	6.1	0.18924193882849
14	117	6.2	-0.75963640201372
14	118	6.3	0.40987313576043
14	119	6.4	-0.45699431821704
14	120	6.5	0.83070571031421
14	121	6.6	-0.48029224690981
14	122	6.7	0.32415940300561
14	123	6.8	0.036416452680719
14	124	6.9	-0.43410794057418
14	125	7	-0.068080233829102
14	126	7.1	0.15234129466116
14	141	7.2	-0.26973386174068
14	142	7.3	0.56496508156415
14	143	7.4	-0.61088978303596
14	144	7.5	0.45308784022928
14	145	7.6	-0.095143054751681
14	146	7.7	0.4139228769578
14	147	7.8	0.19827201582957
14	148	7.9	-0.54124484246131
14	149	8	0.15651716678404
14	150	8.1	-0.71841094121337
14	165	8.2	1.1489599535009
14	166	8.3	-0.063987843529318
14	167	8.4	0.033316818950695
14	168	8.5	-0.36837230985984
14	169	8.6	-0.40933399971109
14	170	8.7	0.92344398072455
14	171	8.8	-0.66211927796248
14	172	8.9	-0.35445942927618
14	173	9	0.11606829406228
14	174	9.1	0.16534155830741
14	183	9.2	-0.37316871439107
14	184	9.3	0.85076899493579
14	185	9.4	-0.9885108100716
14	186	9.5	0.85597305048722
14	187	9.6	-0.70566301811486
14	188	9.7	-0.054675019369457
14	189	9.8	0.05856753155645
14	190	9.9	-3.1493596794561
14	191	10	-2.2332049923388
14	192	10.1	-2.1744186325849
14	213	10.2	-3.3182019221719
14	214	10.3	-1.8911265805175
14	215	10.4	-2.2404831294578
14	216	10.5	-2.4089277649865
14	217	10.6	-1.0068746568886
14	218	10.7	-3.0269313330475
14	219	10.8	2.6
14	220	10.9	2.6
14	221	11	2.6
14	222	11.1	2.6
14	223	11.2	2.3473551146453
14	224	11.3	2.6
14	225	11.4	2.6
14	226	11.5	2.6
14	227	11.6	2.0092787226073
14	228	11.7	-0.69350537911523
14	229	11.8	-0.36004594441037
14	230	11.9	0.9280368248932
14	231	12	-0.47055442121345
14	232	12.1	-0.47886255807244
14	259	12.2	-0.026526433811522
14	260	12.3	0.61934927161783
14	261	12.4	-0.12823915684129
14	262	12.5	0.56437662988901
14	263	12.6	-0.65501950893085
14	264	12.7	-0.005957063660027
14	265	12.8	0.5854504483752
14	266	12.9	-0.70538208219223
14	267	13	0.17242371893953
14	268	13.1	-0.41254160115495
14	269	13.2	-0.16708946777507
14	270	13.3	-0.012590814405122
14	271	13.4	0.54952063919045
14	272	13.5	0.27244574595243
14	273	13.6	-0.42007041370962
14	274	13.7	0.82913447627798
14	275	13.8	-0.3874408468837
14	276	13.9	-0.61511683287099
14	277	14	-0.1867380495416
14	278	14.1	0.6656288882019
14	299	14.2	-0.044494523806495
14	300	14.3	0.42643061482813
14	301	14.4	-0.34343080997933
14	302	14.5	0.079082330502569
14	303	14.6	-0.035705413250255
14	304	14.7	0.0040142758982231
14	325	14.8	-0.34185548583046
14	326	14.9	-0.45306087448261
14	327	15	0.9681463584071
14	328	15.1	-0.8742693586275
14	337	15.2	0.72605129855219
14	338	15.3	-0.024613267206588
14	339	15.4	-0.37771681370214
14	340	15.5	0.82048626651522
14	341	15.6	-0.54291059342213
14	342	15.7	-0.35069108104799
14	343	15.8	-0.1801126963459
14	344	15.9	0.055871491879227
14	345	16	-0.046779270772825
14	346	16.1	-0.058449974795805
14	373	16.2	1.0774521296145
14	374	16.3	-0.69826965206303
14	375	16.4	0.28444160046056
14	376	16.5	-0.09549144953489
14	377	16.6	-0.27861300532241
14	378	16.7	0.44177516044583
14	379	16.8	-0.15929373004473
14	380	16.9	0.51248584156856
14	381	17	-1.1951782989083
14	382	17.1	0.90519559497479
14	415	17.2	-0.88419888992794
14	416	17.3	0.3692256175913
14	417	17.4	-0.31176509773359
14	418	17.5	1.0130454001948
14	419	17.6	-0.34330606018193
14	434	17.7	-0.20218360547442
14	435	17.8	0.0078817378496776
14	436	17.9	-2.1894269840468
14	437	18	-2.7517917148862
14	438	18.1	-1.5774742337852
14	483	18.2	-2.593040126915
14	484	18.3	-3.2596881763348
14	485	18.4	-1.5637735650578
14	530	18.5	-1.9413093114828
14	531	18.6	-2.8962283126566
14	532	18.7	-2.2677295159124
14	533	18.8	2.6
14	534	18.9	2.6
14	535	19	2.6
14	536	19.1	2.6
14	581	19.2	2.6
14	582	19.3	2.6
14	609	19.4	2.6
14	610	19.5	2.6
14	611	19.6	0.93058010550698
14	612	19.7	-0.67227846002206
14	613	19.8	0.0019486076896946
14	614	19.9	0.0071634480264038
14	615	20	0.47102466945071
14	616	20.1	-0.073151941411194
14	617	20.2	-0.74763958589174
14	618	20.3	-0.55440640707095
14	627	20.4	-3.1824954992515
14	628	20.5	-2.3106976159709
14	629	20.6	-1.9295261205878
14	630	20.7	-2.8510763732153
14	631	20.8	-1.9702401651619
14	632	20.9	-1.9128145713087
14	633	21	-3.1658585568717
14	634	21.1	-1.421516079583
14	635	21.2	-1.5214259587268
14	636	21.3	2.6
14	637	21.4	2.6
14	638	21.5	2.6
14	639	21.6	2.6
14	640	21.7	2.6
14	641	21.8	2.6
14	642	21.9	2.2979019066319
14	643	22	2.6
14	644	22.1	1.3350887032749
14	645	22.2	-0.33294793453533
14	646	22.3	-0.55809148247354
14	647	22.4	0.89017593681347
14	648	22.5	-0.94875799140428
14	649	22.6	0.038509136275389
14	650	22.7	0.22737610593904
14	651	22.8	-0.59690505140461
14	652	22.9	0.79268572039436
14	653	23	-0.6193955988856
14	654	23.1	0.34920048061759
14	655	23.2	0.175249298173
14	656	23.3	0.22325673082378
14	707	23.4	-0.85227930708789
14	708	23.5	0.051404637284582
14	709	23.6	0.96255128257908
14	710	23.7	-0.73837757774163
14	711	23.8	0.0016701915767037
14	712	23.9	0.56194373657926
14	713	24	-0.34077235662844
14	714	24.1	-0.3047523930436
14	715	24.2	0.86405626535416
14	716	24.3	-0.20762727812398
14	717	24.4	-0.45940664049703
14	718	24.5	-0.44205790942069
14	719	24.6	0.081938529433678
14	720	24.7	-0.091718737874178
14	721	24.8	0.93388784558046
14	760	24.9	0.31141807348468
14	761	25	-0.48464284127113
14	762	25.1	0.38210566225462
14	771	25.2	-0.71343760003802
14	772	25.3	-0.3042598085478
14	773	25.4	0.88085201368668
14	774	25.5	-0.25343422987499
14	775	25.6	0.48538139702287
14	776	25.7	-0.34945787258912
14	777	25.8	0.23192049530334
14	778	25.9	-0.20864785036538
14	779	26	-0.84434981090017
14	780	26.1	0.55262545328588
14	781	26.2	0.28072167676873
14	782	26.3	-0.10281113120727
14	783	26.4	-1.4937731476924
14	784	26.5	-1.9442242971089
14	785	26.6	-3.3411088475632
14	794	26.7	-2.036772737085
14	795	26.8	-2.6576317540064
14	816	26.9	-1.7920864322646
14	817	27	-3.0952935219523
14	818	27.1	-1.8487512285998
14	819	27.2	-1.2692790951772
14	820	27.3	-2.7408731170945
14	821	27.4	2.6
14	822	27.5	2.6
14	823	27.6	2.6
14	824	27.7	2.6
14	825	27.8	2.6
14	858	27.9	2.6
14	909	28	2.6
14	924	28.1	2.6
14	925	28.2	1.8949949132274
14	926	28.3	-0.6702738184249
14	927	28.4	1.6004047319526
14	928	28.5	1.8100800075335
14	929	28.6	1.6721669055754
14	930	28.7	1.8386834279634
14	931	28.8	1.8333746385295
14	932	28.9	1.817886642646
14	933	29	1.4616000483977
14	934	29.1	1.363567066798
14	935	29.2	2.3590931994375
14	936	29.3	1.7139484655112
14	993	29.4	2.2876199794235
14	994	29.5	2.0793893738184
14	995	29.6	1.5763129164232
14	996	29.7	2.5573913250351
14	1011	29.8	2.4905302538071
14	1012	29.9	1.4291221916675
14	1013	30	1.3802831037901
14	1014	30.1	1.4499913301785
14	1015	30.2	1.3963988061994
[...]
88	1645	42.2	7243.7183240506
88	1690	42.3	7241.9439019301
88	1691	42.4	7240.1624959676
88	1692	42.5	7238.3872212146
88	1693	42.6	7236.6122364305
88	1720	42.7	7234.8321950719
88	1721	42.8	7233.05659858
88	1722	42.9	7231.2710337948
88	1723	43	7229.4857965857
88	1724	43.1	7227.7027418048
88	1725	43.2	7225.9223965525
88	1726	43.3	7224.1438300531
88	1727	43.4	7222.3693599411
88	1772	43.5	7220.5889186005
88	1799	43.6	7218.8024914305
88	1800	43.7	7217.0164090711
88	1801	43.8	7215.2413137214
88	1802	43.9	7213.4544350801
88	1803	44	7211.6764522502
88	1804	44.1	7209.8923068545
88	1805	44.2	7208.1104738824
88	1832	44.3	7206.33208354
88	1833	44.4	7204.5504591778
88	1834	44.5	7202.7719042853
88	1835	44.6	7200.996377695
88	1836	44.7	7199.2107974125
88	1837	44.8	7197.4260413657
88	1838	44.9	7195.6487217158
88	1839	45	7193.8681898837
88	1840	45.1	7192.0912747122
88	1841	45.2	7190.312000715
88	1842	45.3	7188.5353545416
88	1843	45.4	7186.749823076
88	1844	45.5	7184.9745054556
88	1845	45.6	7183.1962298561
88	1846	45.7	7181.4218638673
88	1885	45.8	7179.6372287613
88	1886	45.9	7177.850426551
88	1887	46	7176.0656940389
88	1888	46.1	7174.2846778775
88	2265	46.2	7172.4983031314
88	2266	46.3	7170.716352366
88	2267	46.4	7168.9339867096
88	2268	46.5	7167.1522848591
88	2269	46.6	7165.3702129128
88	2270	46.7	7163.5863785861
88	2271	46.8	7161.8096346459
88	2272	46.9	7160.0235752207
88	2273	47	7158.2444551133
88	2274	47.1	7156.4597475202
88	2275	47.2	7154.6801305584
88	2276	47.3	7152.898000758
88	2277	47.4	7151.1125606271
88	2278	47.5	7149.3364457742
88	2279	47.6	7147.5516965106
88	2280	47.7	7145.7658484797
88	2281	47.8	7143.9828459917
88	2302	47.9	7142.1989553144
88	2311	48	7140.4192555714
88	2312	48.1	7138.642168737
88	2313	48.2	7136.8635863405
88	2314	48.3	7135.085119477
88	2315	48.4	7133.298935728
88	2316	48.5	7131.51674882
88	2317	48.6	7129.7318368281
88	2318	48.7	7127.9555453019
88	2319	48.8	7126.1685690843
88	2320	48.9	7124.3841061968
88	2321	49	7122.5974109684
88	2322	49.1	7120.8204177571
88	2323	49.2	7119.0341556386
88	2324	49.3	7117.2471238673
88	2325	49.4	7115.4685413183
88	2358	49.5	7113.6914674808
88	2391	49.6	7111.9068733759
88	2392	49.7	7110.1280755574
88	2393	49.8	7108.352666793
88	2394	49.9	7106.566848818
88	2395	50	7104.7836391699
88	2396	50.1	7103.002047432
88	2397	50.2	7101.2279824172
88	2398	50.3	7099.4525578736
88	2399	50.4	7097.6701019921
88	2444	50.5	7095.8891686194
88	2445	50.6	7094.1122737523
88	2446	50.7	7092.3288388641
88	2447	50.8	7090.5522216493
88	2448	50.9	7088.7689132309
88	2493	51	7086.9909170058
88	2494	51.1	7085.2140424858
88	2495	51.2	7083.4366044426
88	2496	51.3	7081.661583491
88	2497	51.4	7079.8834453392
88	2498	51.5	7078.106292697
88	2543	51.6	7076.3308888658
88	2544	51.7	7074.5517928481
88	2583	51.8	7072.764774906
88	2648	51.9	7070.985727927
88	2649	52	7069.2017878257
88	2650	52.1	7067.4171536347
88	2651	52.2	7065.6339963315
88	2652	52.3	7063.849922615
88	2653	52.4	7062.0733307785
88	2654	52.5	7060.2887837838
88	2655	52.6	7058.5032117001
88	2656	52.7	7056.7174191468
88	2657	52.8	7054.9360389666
88	2658	52.9	7053.1584607497
88	2659	53	7051.3723694358
88	2660	53.1	7049.5906332065
88	2661	53.2	7047.8129949558
88	2662	53.3	7046.0293588694
88	2663	53.4	7044.2476012019
88	2664	53.5	7042.4619140718
88	2665	53.6	7040.68235963
88	2666	53.7	7038.8999971786
88	2743	53.8	7037.123034012
88	2744	53.9	7035.3372287964
88	2745	54	7033.5527255267
88	2746	54.1	7031.7657009568
88	2747	54.2	7029.983700429
88	2748	54.3	7028.1990381588
88	2749	54.4	7026.4159636678
88	2750	54.5	7024.631008859
88	2751	54.6	7022.8496304057
88	2752	54.7	7021.0675576083
88	2753	54.8	7019.2922500304
88	2754	54.9	7017.5174491396
88	2755	55	7015.7321582166
88	2764	55.1	7013.9568534729
88	2765	55.2	7012.1825246717
88	2766	55.3	7010.4051105954
88	2767	55.4	7008.6206584209
88	2768	55.5	7006.8387274933
88	2769	55.6	7005.0614535409
88	2802	55.7	7003.2764841871
88	2847	55.8	7001.4961830134
88	2848	55.9	6999.7142128653
88	2849	56	6997.9326136305
88	2850	56.1	6996.1475767499
88	2851	56.2	6994.371231858
88	2852	56.3	6992.590686742
88	2853	56.4	6990.8154247293
88	2854	56.5	6989.0353995172
88	2893	56.6	6987.2588984425
88	3002	56.7	6985.4828369489
88	3003	56.8	6983.7014729234
88	3004	56.9	6981.9180628439
88	3005	57	6980.1351163214
88	3006	57.1	6978.3520818527
88	3007	57.2	6976.5670076798
88	3028	57.3	6974.7866629039
88	3029	57.4	6973.0037951752
88	3056	57.5	6971.2172447881
88	3057	57.6	6969.4372736445
88	3058	57.7	6967.6595782371
88	3059	57.8	6965.8848921238
88	3060	57.9	6964.1001158879
88	3061	58	6962.3138308266
88	3062	58.1	6960.5313149165
88	3063	58.2	6958.7487999527
88	3064	58.3	6956.9644333335
88	3065	58.4	6955.1805982657
88	3066	58.5	6953.3993539995
88	3067	58.6	6951.6204251305
88	3068	58.7	6949.8335458506
88	3069	58.8	6948.0520261435
88	3070	58.9	6946.2774521008
88	3071	59	6944.5021196604
88	3072	59.1	6942.7185905325
88	3073	59.2	6940.9376616115
88	3074	59.3	6939.1562059528
88	3075	59.4	6937.3704943032
88	3076	59.5	6935.5943043915
88	3077	59.6	6933.8168121174
88	3078	59.7	6932.0315112446
88	3079	59.8	6930.2475274668
88	3080	59.9	6928.4646053275
88	3081	60	6926.6882498095
88	3082	60.1	6924.9103110681
88	3083	60.2	6923.1298805776
88	3084	60.3	6921.3443233919
88	3085	60.4	6919.5693731886
88	3086	60.5	6917.7857233277
88	3087	60.6	6916.0053448454
88	3088	60.7	6914.2278438388
88	3089	60.8	6912.4532866446
88	3142	60.9	6910.6718787723
88	3143	61	6908.8941058839
88	3144	61.1	6907.1108798577
88	3145	61.2	6905.3313930938
88	3240	61.3	6903.5507807217
88	3241	61.4	6901.7742157719
88	3292	61.5	6899.9997820866
88	3293	61.6	6898.2238216061
88	3338	61.7	6896.4416079021
88	3389	61.8	6894.6600051475
88	3390	61.9	6892.8746948038
88	3391	62	6891.0884338854
88	3392	62.1	6889.3078776041
88	3401	62.2	6887.5250019038
88	3402	62.3	6885.7444771643
88	3403	62.4	6883.9670900006
88	3404	62.5	6882.1895172495
88	3405	62.6	6880.4121172784
88	3406	62.7	6878.6303983249
88	3407	62.8	6876.8480747237
88	3408	62.9	6875.0724649729
88	3409	63	6873.292821862
88	3410	63.1	6871.5113340432
88	3411	63.2	6869.7362455752
88	3412	63.3	6867.9550775255
88	3413	63.4	6866.1694611821
88	3414	63.5	6864.3921169666
88	3415	63.6	6862.6117043947
88	3416	63.7	6860.8268702256
88	3417	63.8	6859.0413818225
88	3462	63.9	6857.2604176762
88	3501	64	6855.4812859707
88	3502	64.1	6853.7053952297
88	3541	64.2	6851.9225563245
88	3542	64.3	6850.1478294473
88	3543	64.4	6848.3661480652
88	3544	64.5	6846.5858645531
88	3545	64.6	6844.8057562875
88	3546	64.7	6843.0202039007
88	3547	64.8	6841.239094809
88	3548	64.9	6839.4626616338
88	3549	65	6837.680108958
88	3550	65.1	6835.9020159928
88	3551	65.2	6834.1101073634
88	3552	65.3	6832.3329083349
88	3553	65.4	6830.5520377222
88	3554	65.5	6828.7713882143
88	3555	65.6	6826.9912261748
88	3556	65.7	6825.2124556184
88	3557	65.8	6823.4356021178
88	3608	65.9	6821.656035361
88	3609	66	6819.8799712895
88	3610	66.1	6818.1018566646
88	3661	66.2	6816.3183665789
88	3706	66.3	6814.5335497338
88	3707	66.4	6812.750832261
88	3708	66.5	6810.9687261825
88	3709	66.6	6809.1842420213
88	3710	66.7	6807.40964774
88	3761	66.8	6805.6242604388
88	3812	66.9	6803.8465983354
88	3813	67	6802.0724302215
88	3814	67.1	6800.2951634945
88	3815	67.2	6798.5216502435
88	3816	67.3	6796.7393601694
88	3817	67.4	6794.9634384148
88	3818	67.5	6793.1872196932
88	3875	67.6	6791.4117536997
88	3876	67.7	6789.6376866436
88	3933	67.8	6787.8582536347
88	3934	67.9	6786.0767204386
88	3961	68	6784.2915193683
88	3962	68.1	6782.5170018148
88	3963	68.2	6780.7377619372
88	3964	68.3	6778.9541766637
88	3965	68.4	6777.1697471022
88	3966	68.5	6775.3877188941
88	3967	68.6	6773.6022786855
88	3968	68.7	6771.8246452442
88	3969	68.8	6770.0428474605
88	3970	68.9	6768.2610155919
88	3971	69	6766.4871227901
88	3972	69.1	6764.7108317406
88	3973	69.2	6762.9411658817
88	3982	69.3	6761.1707393926
88	3983	69.4	6759.4083909016
88	3992	69.5	6757.6384857988
88	3993	69.6	6755.8667689287
88	3994	69.7	6754.0920211918
88	3995	69.8	6752.316336113
88	3996	69.9	6750.5293286395
88	4041	70	6748.7466510595
88	4086	70.1	6746.9615751792
88	4087	70.2	6745.1715153099
88	4088	70.3	6743.3881351574
88	4089	70.4	6741.6030517699
88	4122	70.5	6739.8213023888
88	4123	70.6	6738.0290826068
88	4124	70.7	6736.2488736848
88	4125	70.8	6734.4695086344
88	4170	70.9	6732.6866576827
88	4171	71	6730.90488108
88	4172	71.1	6729.1229761265
88	4173	71.2	6727.3420639141
88	4174	71.3	6725.5550031345
88	4175	71.4	6723.7730421738
88	4176	71.5	6721.9897718696
88	4177	71.6	6720.2090417059
88	4178	71.7	6718.4340411419
88	4179	71.8	6716.6555471667
88	4180	71.9	6714.8773429922
88	4181	72	6713.0894587723
88	4182	72.1	6711.3100069273
88	4183	72.2	6709.5275972792
88	4216	72.3	6707.7516798084
88	4217	72.4	6705.9676842729
88	4218	72.5	6704.1783593512
88	4219	72.6	6702.3972947557
88	4264	72.7	6700.6076285676
88	4265	72.8	6698.8279821394
88	4266	72.9	6697.0452057168
88	4311	73	6695.2650804426
88	4312	73.1	6693.4884981095
88	4313	73.2	6691.7106661242
88	4314	73.3	6689.9242720108
88	4315	73.4	6688.1452532475
88	4316	73.5	6686.3690316348
88	4317	73.6	6684.5855585294
88	4318	73.7	6682.7983383094
88	4319	73.8	6681.0087535003
88	4320	73.9	6679.2213913905
88	4321	74	6677.4409622236
88	4322	74.1	6675.6551071633
88	4323	74.2	6673.870104939
88	4324	74.3	6672.0928800892
88	4325	74.4	6670.3075081849
88	4326	74.5	6668.5203678628
88	4327	74.6	6666.7346634416
88	4328	74.7	6664.9555679698
88	4329	74.8	6663.1779686609
88	4330	74.9	6661.3907286576
88	4331	75	6659.6129635373
88	4333	75.1	6657.8328992996
88	4334	75.2	6656.0462608909
88	4335	75.3	6654.26255612
88	4336	75.4	6652.4826559779
88	4337	75.5	6650.6954101788
88	4338	75.6	6648.9082141101
88	4377	75.7	6647.1330912827
88	4378	75.8	6645.34525728
88	4379	75.9	6643.5606626973
88	4380	76	6641.7852068929
88	4381	76.1	6640.007426007
88	4432	76.2	6638.231899206
88	4433	76.3	6636.4531368726
88	4442	76.4	6634.6656749141
88	4443	76.5	6632.8894598161
88	4444	76.6	6631.1135926999
88	4445	76.7	6629.3366813479
88	4446	76.8	6627.549336614
88	4447	76.9	6625.7723737375
88	4448	77	6623.9931894135
88	4449	77.1	6622.2062042906
88	4450	77.2	6620.4220487296
88	4495	77.3	6618.6432129753
88	4496	77.4	6616.8599962766
88	4497	77.5	6615.0802574306
88	4498	77.6	6613.3062044004
88	4537	77.7	6611.5244801028
88	4538	77.8	6609.7440040313
88	4577	77.9	6607.9660686216
88	4578	78	6606.1785310696
88	4579	78.1	6604.3946810671
88	4580	78.2	6602.6113698943
88	4613	78.3	6600.833562134
88	4614	78.4	6599.0559189297
88	4615	78.5	6597.2723389433
88	4616	78.6	6595.4935634482
88	4617	78.7	6593.7167884254
88	4618	78.8	6591.9415042777
88	4619	78.9	6590.1583043953
88	4620	79	6588.3814046042
88	4621	79.1	6586.5950694253
88	4622	79.2	6584.8135529543
88	4623	79.3	6583.025834006
88	4624	79.4	6581.2429086183
88	4669	79.5	6579.4606497742
88	4670	79.6	6577.6726055434
88	4705	79.7	6575.8899539556
88	4706	79.8	6574.1120401311
88	4707	79.9	6572.3368331182
88	4708	80	6570.5587988865
88	4709	80.1	6568.7724161878
88	4710	80.2	6566.9895436143
88	4711	80.3	6565.2124068423
88	4712	80.4	6563.4351785505
88	4713	80.5	6561.6519584484
88	4714	80.6	6559.8643727483
88	4715	80.7	6558.0821667597
88	4716	80.8	6556.2971319062
88	4717	80.9	6554.515795862
88	4718	81	6552.7386560028
88	4769	81.1	6550.9608155679
88	4770	81.2	6549.1774751781
88	4771	81.3	6547.3940754412
88	4772	81.4	6545.6094172591
88	4773	81.5	6543.826309866
88	4774	81.6	6542.0460779109
88	4775	81.7	6540.2706786236
88	4776	81.8	6538.4952522336
88	4821	81.9	6536.713142023
88	4822	82	6534.9320881286
88	4823	82.1	6533.1541759908
88	4824	82.2	6531.3756730301
88	4825	82.3	6529.5952992456
88	4826	82.4	6527.8192200386
88	4909	82.5	6526.0379529402
88	4910	82.6	6524.2590444822
88	4911	82.7	6522.4788124004
88	4956	82.8	6520.7025540397
88	4957	82.9	6518.9222640976
88	4958	83	6517.1390060054
88	4959	83.1	6515.356587098
88	4960	83.2	6513.5808936928
88	4961	83.3	6511.8043641934
88	4962	83.4	6510.0234903181
88	4977	83.5	6508.246671393
88	4978	83.6	6506.4603807499
88	4979	83.7	6504.6837224132
88	5030	83.8	6502.8983478223
88	5031	83.9	6501.1103220291
88	5032	84	6499.3333163524
88	5033	84.1	6497.5505583135
88	5034	84.2	6495.7706224091
88	5067	84.3	6493.9863483823
88	5068	84.4	6492.2062997985
88	5069	84.5	6490.419735358
88	5070	84.6	6488.6334895375
88	5071	84.7	6486.848340995
88	5072	84.8	6485.0603410952
88	5073	84.9	6483.2747682841
88	5074	85	6481.497816648
88	5075	85.1	6479.720477849
88	5076	85.2	6477.9396922923
88	5077	85.3	6476.1535263732
88	5078	85.4	6474.373130884
88	5079	85.5	6472.5921973072
88	5080	85.6	6470.8147703611
88	5081	85.7	6469.0336695594
88	5120	85.8	6467.2499636325
88	5121	85.9	6465.4622182402
88	5122	86	6463.6802815322
88	5123	86.1	6461.8982115804
88	5156	86.2	6460.1205043422
88	5157	86.3	6458.3448726415
88	5158	86.4	6456.5630846365
88	5159	86.5	6454.7828850472
88	5160	86.6	6452.9957638383
88	5211	86.7	6451.2172908856
88	5212	86.8	6449.4309279823
88	5213	86.9	6447.6548640374
88	5214	87	6445.8784932735
88	5254	87.1	6444.0933057781
88	5255	87.2	6442.3137462423
88	5256	87.3	6440.5295113731
88	5257	87.4	6438.7475516928
88	5258	87.5	6436.9720550396
88	5309	87.6	6435.1926858593
88	5310	87.7	6433.4140400867
88	5361	87.8	6431.6296952232
88	5362	87.9	6429.8444303118
88	5363	88	6428.0685744149
88	5364	88.1	6426.2873161275
88	5365	88.2	6424.5039917483
88	5366	88.3	6422.7225721292
88	5367	88.4	6420.9347360437
88	5368	88.5	6419.1498570807
88	5369	88.6	6417.370268938
88	5370	88.7	6415.5844473584
88	5371	88.8	6413.7978492245
88	5422	88.9	6412.0144351793
88	5423	89	6410.2302492207
88	5424	89.1	6408.4515096074
88	5425	89.2	6406.670578687
88	5482	89.3	6404.8855825094
88	5483	89.4	6403.1092160049
88	5484	89.5	6401.3286652639
88	5485	89.6	6399.5479352749
88	5486	89.7	6397.7635853689
88	5487	89.8	6395.9840817118
88	5532	89.9	6394.1984049688
88	5533	90	6392.4141460739
88	5534	90.1	6390.6278551416
88	5535	90.2	6388.8470235699
88	5536	90.3	6387.062825901
88	5537	90.4	6385.2840009215
88	5538	90.5	6383.498580854
88	5577	90.6	6381.7222368523
88	5578	90.7	6379.9379975074
88	5579	90.8	6378.1594101228
88	5580	90.9	6376.375876019
88	5581	91	6374.6007650789
88	5582	91.1	6372.8241212143
88	5583	91.2	6371.0380469062
88	5616	91.3	6369.2596933986
88	5617	91.4	6367.478116454
88	5626	91.5	6365.6945840422
88	5677	91.6	6363.9094888658
88	5710	91.7	6362.1289969993
88	5711	91.8	6360.3521982032
88	5712	91.9	6358.5702697085
88	5733	92	6356.7929211376
88	5734	92.1	6355.0088816484
88	5735	92.2	6353.2212065734
88	5736	92.3	6351.4352877439
88	5769	92.4	6349.6488661317
88	5770	92.5	6347.8612783885
88	5771	92.6	6346.07802714
88	5772	92.7	6344.3016791114
88	5773	92.8	6342.5204731347
88	5774	92.9	6340.7433482268
88	5775	93	6338.9632548716
88	5776	93.1	6337.1802786005
88	5777	93.2	6335.3993202105
88	5778	93.3	6333.6196695982
88	5829	93.4	6331.8328260593
88	5830	93.5	6330.0547323887
88	5831	93.6	6328.2682561023
88	5832	93.7	6326.4841252477
88	5877	93.8	6324.6997653719
88	5898	93.9	6322.9291243114
88	5899	94	6321.1970902883
88	5900	94.1	6319.4959406448
88	5901	94.2	6317.8363484351
88	5902	94.3	6316.2169181728
88	5903	94.4	6314.6302785651
88	5904	94.5	6313.0830320576
88	5905	94.6	6311.5585030515
88	5950	94.7	6310.0698057288
88	5951	94.8	6308.6257041216
88	5952	94.9	6307.2126230208
88	5953	95	6305.8303217482
88	5954	95.1	6304.4830769641
88	5955	95.2	6303.1732493506
88	5956	95.3	6301.9005917381
88	5957	95.4	6300.6569725751
88	5958	95.5	6299.4506008999
88	5959	95.6	6298.2823849378
88	5960	95.7	6297.1464194278
88	5961	95.8	6296.0453736732
88	6000	95.9	6294.9639319977
88	6051	96	6293.9197443129
88	6052	96.1	6292.9123613633
88	6053	96.2	6291.9375888568
88	6054	96.3	6290.9877500547
88	6055	96.4	6290.0663588161
88	6056	96.5	6289.1756524885
88	6057	96.6	6288.3262472161
88	6058	96.7	6287.5070667149
88	6059	96.8	6286.7075028977
88	6060	96.9	6285.9420769691
88	6087	97	6285.2039193122
88	6088	97.1	6284.494191966
88	6089	97.2	6283.8134023383
88	6090	97.3	6283.158538554
88	6091	97.4	6282.5390806012
88	6092	97.5	6281.9399555819
88	6093	97.6	6281.3689921371
88	6144	97.7	6280.8275238309
88	6145	97.8	6280.3101877896
88	6146	97.9	6279.8158168306
88	6147	98	6279.3423175129
88	6204	98.1	6278.890084267
88	6205	98.2	6278.4665959219
88	6206	98.3	6278.0636850318
88	6207	98.4	6277.6862339769
88	6208	98.5	6277.3351419612
88	6209	98.6	6276.9994550267
88	6210	98.7	6276.6874898041
88	6211	98.8	6276.3915617216
88	6212	98.9	6276.1066898744
88	6213	99	6275.8459213849
88	6228	99.1	6275.6023829676
88	6229	99.2	6275.3731594132
88	6230	99.3	6275.1179358587
88	6231	99.4	6274.8804878539
88	6232	99.5	6274.627692138
88	6233	99.6	6274.3532282559
88	6234	99.7	6274.0570962076
88	6235	99.8	6273.7849613456
88	6236	99.9	6273.5994286795
88	6237	100	6273.437507423
88	6294	100.1	6273.6380815971
88	6295	100.2	6273.8604831119
88	6296	100.3	6274.2683279515
88	6297	100.4	6274.6942535863
88	6336	100.5	6275.1484345815
88	6337	100.6	6275.7031669954
88	6338	100.7	6276.2782306338
88	6339	100.8	6276.8715941603
88	6384	100.9	6277.490423647
88	6385	101	6278.1310102337
88	6386	101.1	6278.791604197
88	6387	101.2	6279.4691670508
88	6388	101.3	6280.1647610898
88	6389	101.4	6280.8772002082
88	6390	101.5	6281.6150784112
88	6391	101.6	6282.3775765999
88	6392	101.7	6283.1571197927
88	6457	101.8	6283.9529407265
88	6458	101.9	6284.7644060722
88	6459	102	6285.6015644131
88	6460	102.1	6286.4639506629
88	6461	102.2	6287.3430015055
88	6462	102.3	6288.2430809608
88	6463	102.4	6289.1670166398
88	6464	102.5	6290.1042039004
88	6509	102.6	6291.0658460562
88	6566	102.7	6292.049711711
88	6567	102.8	6293.053028531
88	6568	102.9	6294.0799613455
88	6569	103	6295.1255929609
88	6570	103.1	6296.1949218689
88	6571	103.2	6297.288359038
88	6572	103.3	6298.4038324612
88	6573	103.4	6299.5441640316
88	6574	103.5	6300.7083444578
88	6575	103.6	6301.8856226339
88	6576	103.7	6303.0871064036
88	6577	103.8	6304.3053152624
88	6578	103.9	6305.5443148369
88	6579	104	6306.8011053309
88	6606	104.1	6308.0764626429
88	6607	104.2	6309.3662455559
88	6608	104.3	6310.6756223328
88	6609	104.4	6312.0071613254
88	6610	104.5	6313.3565083983
88	6611	104.6	6314.7213634094
88	6612	104.7	6316.1113463094
88	6613	104.8	6317.5207930895
88	6614	104.9	6318.9552311985
88	6615	105	6320.4087999494
88	6617	105.1	6321.8874065001
88	6662	105.2	6323.3842794856
88	6663	105.3	6324.89825729
88	6664	105.4	6326.4381522509
88	6727	105.5	6327.9941055512
88	6728	105.6	6329.5635377395
88	6729	105.7	6331.1468831326
88	6730	105.8	6332.7500098426
88	6731	105.9	6334.3782941444
88	6732	106	6336.0260206786
88	6733	106.1	6337.6912013777
88	6734	106.2	6339.3797271826
88	6735	106.3	6341.0818805129
88	6736	106.4	6342.8089392239
88	6769	106.5	6344.557492724
88	6770	106.6	6346.322713741
88	6771	106.7	6348.0995318792
88	6772	106.8	6349.8757948583
88	6773	106.9	6351.6518939991
88	6774	107	6353.4353791334
88	6775	107.1	6355.2120085923
88	6826	107.2	6356.9947471083
88	6827	107.3	6358.7797097041
88	6878	107.4	6360.5608692647
88	6911	107.5	6362.3374795816
88	6912	107.6	6364.1157952144
88	6945	107.7	6365.8978966513
88	6946	107.8	6367.6773383061
88	6947	107.9	6369.4526754819
88	6974	108	6371.2354052776
88	6975	108.1	6373.0199935253
88	6976	108.2	6374.8024768595
88	7039	108.3	6376.5808029976
88	7040	108.4	6378.3668920344
88	7041	108.5	6380.149862236
88	7042	108.6	6381.9313709375
88	7043	108.7	6383.7092102511
88	7044	108.8	6385.4867388282
88	7071	108.9	6387.2687193035
88	7072	109	6389.0529559218
88	7073	109.1	6390.8399193454
88	7074	109.2	6392.6158062277
88	7075	109.3	6394.3988822546
88	7076	109.4	6396.1864345023
88	7077	109.5	6397.9671844412
88	7078	109.6	6399.7440227943
88	7079	109.7	6401.53115229
88	7080	109.8	6403.3159124275
88	7081	109.9	6405.0998957105
88	7082	110	6406.8769395345
88	7083	110.1	6408.6598780642
88	7084	110.2	6410.4420361248
88	7085	110.3	6412.2275697458
88	7086	110.4	6414.0100822787
88	7087	110.5	6415.7928992116
88	7114	110.6	6417.5707943694
88	7115	110.7	6419.3487645229
88	7116	110.8	6421.1364123706
88	7117	110.9	6422.9145851244
88	7118	111	6424.7012329949
88	7157	111.1	6426.4847502966
88	7184	111.2	6428.2659368396
88	7185	111.3	6430.0530222151
88	7186	111.4	6431.8405433895
