version 2
run General-0-20170416-02:12:39-12960
attr configname General
attr datetime 20170416-02:12:39
attr experiment General
attr inifile omnetpp.ini
attr iterationvars ""
attr iterationvars2 $repetition=0
attr measurement ""
attr network DVCastScenario
attr processid 12960
attr repetition 0
attr replication #0
attr resultdir results
attr runnumber 0
attr seedset 0
param **.coreDebug false
param **.debug false
param *.**.nic.mac1609_4.bitrate 18Mbps
param *.**.nic.mac1609_4.txPower 20mW
param *.**.nic.mac1609_4.useServiceChannel false
param *.**.nic.phy80211p.analogueModels "xmldoc(\"config.xml\")"
param *.**.nic.phy80211p.decider "xmldoc(\"config.xml\")"
param *.**.nic.phy80211p.sensitivity -89dBm
param *.**.nic.phy80211p.thermalNoise -110dBm
param *.**.nic.phy80211p.usePropagationDelay true
param *.**.nic.phy80211p.useThermalNoise true
param *.annotations.draw false
param *.connectionManager.alpha 2.0
param *.connectionManager.carrierFrequency "5.890e9 Hz"
param *.connectionManager.pMax 20mW
param *.connectionManager.sat -89dBm
param *.connectionManager.sendDirect true
param *.manager.autoShutdown true
param *.manager.host "\"localhost\""
param *.manager.launchConfig "xmldoc(\"uah.launchd.xml\")"
param *.manager.margin 25
param *.manager.moduleDisplayString "\"\""
param *.manager.moduleName "\"node\""
param *.manager.moduleType "\"org.car2x.veins.nodes.Car\""
param *.manager.port 9999
param *.manager.updateInterval 0.1s
param *.node[*0].veinsmobility.accidentCount 1
param *.node[*0].veinsmobility.accidentDuration 30s
param *.node[*0].veinsmobility.accidentStart 75s
param *.node[*].appl.beaconInterval 1s
param *.node[*].appl.beaconPriority 3
param *.node[*].appl.dataOnSch false
param *.node[*].appl.dataPriority 2
param *.node[*].appl.debug false
param *.node[*].appl.headerLength "256 bit"
param *.node[*].appl.maxOffset 0.005s
param *.node[*].appl.sendBeacons false
param *.node[*].appl.sendData true
param *.node[*].applType "\"DVCastLayer\""
param *.node[*].mobilityType "\"TraCIMobility\""
param *.node[*].mobilityType.debug true
param *.node[*].veinsmobility.x 0
param *.node[*].veinsmobility.y 0
param *.node[*].veinsmobility.z 1.895
param *.node[*].veinsmobilityType "\"org.car2x.veins.modules.mobility.traci.TraCIMobility\""
param *.node[*].veinsmobilityType.debug true
param *.playgroundSizeX 20000m
param *.playgroundSizeY 20000m
param *.playgroundSizeZ 5000m
param *.world.use2D false
param *.world.useTorus false

vector 2  DVCastScenario.node[0].veinsmobility  posx  ETV
vector 3  DVCastScenario.node[0].veinsmobility  posy  ETV
vector 4  DVCastScenario.node[0].veinsmobility  speed  ETV
vector 5  DVCastScenario.node[0].veinsmobility  acceleration  ETV
vector 6  DVCastScenario.node[0].veinsmobility  co2emission  ETV
vector 9  DVCastScenario.node[1].veinsmobility  posx  ETV
vector 10  DVCastScenario.node[1].veinsmobility  posy  ETV
vector 11  DVCastScenario.node[1].veinsmobility  speed  ETV
vector 12  DVCastScenario.node[1].veinsmobility  acceleration  ETV
vector 13  DVCastScenario.node[1].veinsmobility  co2emission  ETV
vector 16  DVCastScenario.node[2].veinsmobility  posx  ETV
vector 17  DVCastScenario.node[2].veinsmobility  posy  ETV
vector 18  DVCastScenario.node[2].veinsmobility  speed  ETV
vector 19  DVCastScenario.node[2].veinsmobility  acceleration  ETV
vector 20  DVCastScenario.node[2].veinsmobility  co2emission  ETV
vector 23  DVCastScenario.node[3].veinsmobility  posx  ETV
vector 24  DVCastScenario.node[3].veinsmobility  posy  ETV
vector 25  DVCastScenario.node[3].veinsmobility  speed  ETV
vector 26  DVCastScenario.node[3].veinsmobility  acceleration  ETV
vector 27  DVCastScenario.node[3].veinsmobility  co2emission  ETV
vector 30  DVCastScenario.node[4].veinsmobility  posx  ETV
vector 31  DVCastScenario.node[4].veinsmobility  posy  ETV
vector 32  DVCastScenario.node[4].veinsmobility  speed  ETV
vector 33  DVCastScenario.node[4].veinsmobility  acceleration  ETV
vector 34  DVCastScenario.node[4].veinsmobility  co2emission  ETV
vector 37  DVCastScenario.node[5].veinsmobility  posx  ETV
vector 38  DVCastScenario.node[5].veinsmobility  posy  ETV
vector 39  DVCastScenario.node[5].veinsmobility  speed  ETV
vector 40  DVCastScenario.node[5].veinsmobility  acceleration  ETV
vector 41  DVCastScenario.node[5].veinsmobility  co2emission  ETV
vector 44  DVCastScenario.node[6].veinsmobility  posx  ETV
vector 45  DVCastScenario.node[6].veinsmobility  posy  ETV
vector 46  DVCastScenario.node[6].veinsmobility  speed  ETV
vector 47  DVCastScenario.node[6].veinsmobility  acceleration  ETV
vector 48  DVCastScenario.node[6].veinsmobility  co2emission  ETV
vector 51  DVCastScenario.node[7].veinsmobility  posx  ETV
vector 52  DVCastScenario.node[7].veinsmobility  posy  ETV
vector 53  DVCastScenario.node[7].veinsmobility  speed  ETV
vector 54  DVCastScenario.node[7].veinsmobility  acceleration  ETV
vector 55  DVCastScenario.node[7].veinsmobility  co2emission  ETV
vector 58  DVCastScenario.node[8].veinsmobility  posx  ETV
vector 59  DVCastScenario.node[8].veinsmobility  posy  ETV
vector 60  DVCastScenario.node[8].veinsmobility  speed  ETV
vector 61  DVCastScenario.node[8].veinsmobility  acceleration  ETV
vector 62  DVCastScenario.node[8].veinsmobility  co2emission  ETV
vector 65  DVCastScenario.node[9].veinsmobility  posx  ETV
vector 66  DVCastScenario.node[9].veinsmobility  posy  ETV
vector 67  DVCastScenario.node[9].veinsmobility  speed  ETV
vector 68  DVCastScenario.node[9].veinsmobility  acceleration  ETV
vector 69  DVCastScenario.node[9].veinsmobility  co2emission  ETV
vector 72  DVCastScenario.node[10].veinsmobility  posx  ETV
vector 73  DVCastScenario.node[10].veinsmobility  posy  ETV
vector 74  DVCastScenario.node[10].veinsmobility  speed  ETV
vector 75  DVCastScenario.node[10].veinsmobility  acceleration  ETV
vector 76  DVCastScenario.node[10].veinsmobility  co2emission  ETV
vector 79  DVCastScenario.node[11].veinsmobility  posx  ETV
vector 80  DVCastScenario.node[11].veinsmobility  posy  ETV
vector 81  DVCastScenario.node[11].veinsmobility  speed  ETV
vector 82  DVCastScenario.node[11].veinsmobility  acceleration  ETV
vector 83  DVCastScenario.node[11].veinsmobility  co2emission  ETV
vector 86  DVCastScenario.node[12].veinsmobility  posx  ETV
vector 87  DVCastScenario.node[12].veinsmobility  posy  ETV
vector 88  DVCastScenario.node[12].veinsmobility  speed  ETV
vector 89  DVCastScenario.node[12].veinsmobility  acceleration  ETV
vector 90  DVCastScenario.node[12].veinsmobility  co2emission  ETV
vector 93  DVCastScenario.node[13].veinsmobility  posx  ETV
vector 94  DVCastScenario.node[13].veinsmobility  posy  ETV
vector 95  DVCastScenario.node[13].veinsmobility  speed  ETV
vector 96  DVCastScenario.node[13].veinsmobility  acceleration  ETV
vector 97  DVCastScenario.node[13].veinsmobility  co2emission  ETV
vector 100  DVCastScenario.node[14].veinsmobility  posx  ETV
vector 101  DVCastScenario.node[14].veinsmobility  posy  ETV
vector 102  DVCastScenario.node[14].veinsmobility  speed  ETV
vector 103  DVCastScenario.node[14].veinsmobility  acceleration  ETV
vector 104  DVCastScenario.node[14].veinsmobility  co2emission  ETV
vector 107  DVCastScenario.node[15].veinsmobility  posx  ETV
vector 108  DVCastScenario.node[15].veinsmobility  posy  ETV
vector 109  DVCastScenario.node[15].veinsmobility  speed  ETV
vector 110  DVCastScenario.node[15].veinsmobility  acceleration  ETV
vector 111  DVCastScenario.node[15].veinsmobility  co2emission  ETV
vector 114  DVCastScenario.node[16].veinsmobility  posx  ETV
vector 115  DVCastScenario.node[16].veinsmobility  posy  ETV
vector 116  DVCastScenario.node[16].veinsmobility  speed  ETV
vector 117  DVCastScenario.node[16].veinsmobility  acceleration  ETV
vector 118  DVCastScenario.node[16].veinsmobility  co2emission  ETV
55	166	8.3	1.4322324332167
55	167	8.4	1.5848146051446
55	168	8.5	1.7311677924583
55	169	8.6	1.9475075734934
55	170	8.7	1.890955267136
55	171	8.8	2.1907601332617
55	172	8.9	1.9530297438602
55	173	9	2.2422424944212
55	174	9.1	2.4891249907402
55	183	9.2	2.5682987670743
55	184	9.3	2.4537223335336
55	185	9.4	3.0533097437895
55	186	9.5	2.6220311326332
55	187	9.6	2.8907624968758
55	188	9.7	2.995773042105
55	189	9.8	3.2727776495947
55	190	9.9	3.8257908590443
55	191	10	2.6790308108025
55	192	10.1	2.8321315703029
55	213	10.2	3.8813545779175
55	214	10.3	3.4342693688961
55	215	10.4	3.3183294093905
55	216	10.5	3.7721458551293
55	217	10.6	3.1678017186055
55	218	10.7	4.2992214041557
55	219	10.8	3.7370020151127
55	220	10.9	4.1658730030846
55	221	11	4.7689056644772
55	222	11.1	3.6127880963103
55	223	11.2	4.7585592272302
55	224	11.3	5.6248304829749
55	225	11.4	4.9127844178178
55	226	11.5	5.161644880059
55	227	11.6	5.3856503419015
55	228	11.7	6.2216861941169
55	229	11.8	4.7316551155128
55	230	11.9	5.5756353572303
55	231	12	5.4106218279073
55	232	12.1	5.6632770102393
55	259	12.2	0.973
55	260	12.3	0.973
55	261	12.4	0.973
55	262	12.5	0.973
55	263	12.6	0.973
55	264	12.7	0.973
55	265	12.8	0.973
55	266	12.9	0.973
55	267	13	0.973
55	268	13.1	0.973
55	269	13.2	0.973
55	270	13.3	0.973
55	271	13.4	0.973
55	272	13.5	0.973
55	273	13.6	0.973
55	274	13.7	0.973
55	275	13.8	0.973
55	276	13.9	0.973
55	277	14	0.973
55	278	14.1	0.973
55	299	14.2	3.4974635621448
55	300	14.3	3.6738885400076
55	301	14.4	3.8504555920124
55	302	14.5	4.0271744600662
55	303	14.6	4.2040548860763
55	304	14.7	4.3811066119499
55	325	14.8	4.558339379594
55	326	14.9	4.735762930916
55	327	15	4.9133870078228
55	328	15.1	5.0420735628035
55	337	15.2	3.5647978266287
55	338	15.3	4.579350559826
55	339	15.4	3.6786349143516
55	340	15.5	5.5592116274665
55	341	15.6	4.4061310420778
55	342	15.7	4.2652396646935
55	343	15.8	5.9867303441301
55	344	15.9	4.8944545456203
55	345	16	4.7951364567955
55	346	16.1	5.4965648999016
55	373	16.2	6.5105598508206
55	374	16.3	5.5853524638325
55	375	16.4	6.2413418157711
55	376	16.5	5.1932511543859
55	377	16.6	4.4374173533528
55	378	16.7	5.4557673870001
55	379	16.8	6.3649405385164
55	380	16.9	6.2078791249274
55	381	17	6.8637421073262
55	382	17.1	7.2961318102055
55	415	17.2	6.1030750431693
55	416	17.3	7.8388935467733
55	417	17.4	6.7378009973078
55	418	17.5	7.085999548569
55	419	17.6	7.3078857183207
55	434	17.7	7.3250101216639
55	435	17.8	6.5045905413369
55	436	17.9	7.1096901069494
55	437	18	8.0247305775881
55	438	18.1	6.0794312560553
55	483	18.2	7.40184459745
55	484	18.3	6.145652869395
55	485	18.4	8.6459265408368
55	530	18.5	5.9418006543279
55	531	18.6	7.8701885974923
55	532	18.7	10.077416526834
55	533	18.8	6.2936430626995
55	534	18.9	9.6589542328253
55	535	19	8.6870823749252
55	536	19.1	10.215655921014
55	581	19.2	3.2388739923341
55	582	19.3	0.973
55	609	19.4	3.8728362066519
55	610	19.5	2.2354833478224
55	611	19.6	1.8034020040285
55	612	19.7	2.3899619096179
55	613	19.8	0.973
55	614	19.9	3.0888734557289
55	615	20	0.973
55	616	20.1	2.6770071251412
55	617	20.2	1.1780015558137
55	618	20.3	2.3665556617622
55	627	20.4	2.5868631661856
55	628	20.5	1.9234746936663
55	629	20.6	0.973
55	630	20.7	2.1223170125356
55	631	20.8	1.2710141058993
55	632	20.9	4.1963622219913
55	633	21	0.973
55	634	21.1	1.3794262484936
55	635	21.2	3.5909748788901
55	636	21.3	3.3018021759047
55	637	21.4	0.973
55	638	21.5	3.593442514478
55	639	21.6	0.973
55	640	21.7	1.8709947120799
55	641	21.8	2.7497565221084
55	642	21.9	3.293358888765
55	643	22	2.1958561219915
55	644	22.1	0.973
55	645	22.2	1.2212371980757
55	646	22.3	2.9119312574405
55	647	22.4	2.2961822704379
55	648	22.5	0.973
55	649	22.6	2.4100711990058
55	650	22.7	5.432795308942
55	651	22.8	1.7503782787934
55	652	22.9	0.973
55	653	23	2.5287073372169
55	654	23.1	0.973
55	655	23.2	3.8964811848748
55	656	23.3	2.4115678246844
55	707	23.4	0.973
55	708	23.5	4.6285420611923
55	709	23.6	1.4517622923872
55	710	23.7	2.9228182570406
55	711	23.8	0.973
55	712	23.9	2.4039471328655
55	713	24	3.3927793069966
55	714	24.1	1.3001108055945
55	715	24.2	2.4701912825834
55	716	24.3	3.8462045552487
55	717	24.4	2.2096555907165
55	718	24.5	1.2375924050001
55	719	24.6	1.2694407987448
55	720	24.7	0.973
55	721	24.8	2.6988303011473
55	760	24.9	3.0448847886836
55	761	25	1.7917829215708
55	762	25.1	0.973
55	771	25.2	5.60560582501
55	772	25.3	1.7832261191576
55	773	25.4	0.973
55	774	25.5	5.2525825062366
55	775	25.6	0.973
55	776	25.7	4.2793013813297
55	777	25.8	0.973
55	778	25.9	1.97922722297
55	779	26	2.1003514887442
55	780	26.1	2.9952795796915
55	781	26.2	2.9482978990337
55	782	26.3	1.5356079570009
55	783	26.4	3.2479103089127
55	784	26.5	2.0983148693821
55	785	26.6	0.973
55	794	26.7	3.1770992765834
55	795	26.8	2.689271334155
55	816	26.9	1.3990848510508
55	817	27	0.973
55	818	27.1	0.973
55	819	27.2	0.973
55	820	27.3	0.973
55	821	27.4	0.973
55	822	27.5	0.973
55	823	27.6	0.973
55	824	27.7	0.973
55	825	27.8	0.973
55	858	27.9	0.973
55	909	28	0.973
55	924	28.1	0.973
55	925	28.2	0.973
55	926	28.3	0.973
55	927	28.4	0.973
55	928	28.5	0.973
55	929	28.6	0.973
55	930	28.7	0.973
55	931	28.8	0.973
55	932	28.9	0.973
55	933	29	0.973
55	934	29.1	0.973
55	935	29.2	0.973
55	936	29.3	0.973
55	993	29.4	0.973
55	994	29.5	0.973
55	995	29.6	0.973
55	996	29.7	0.973
55	1011	29.8	0.973
55	1012	29.9	0.973
55	1013	30	0.973
55	1014	30.1	0.973
55	1015	30.2	0.973
55	1016	30.3	0.973
55	1017	30.4	0.973
55	1018	30.5	0.973
55	1019	30.6	0.973
55	1020	30.7	3.4975840121359
55	1021	30.8	3.6740090837092
55	1022	30.9	3.850576236078
55	1023	31	4.0272952111496
55	1024	31.1	3.3184289191235
55	1039	31.2	4.3288218266981
55	1040	31.3	4.5060001366318
55	1041	31.4	4.6833663543926
55	1042	31.5	4.8609302218879
55	1043	31.6	4.4307561327629
55	1044	31.7	4.957510327578
55	1045	31.8	4.3030982513717
55	1046	31.9	3.5564856472953
55	1047	32	5.5127538592787
55	1048	32.1	4.6788735003246
55	1049	32.2	4.851369950035
55	1050	32.3	4.2166499912154
55	1051	32.4	6.0002636355641
55	1052	32.5	4.6027792078098
55	1091	32.6	5.2795951317873
55	1092	32.7	6.2317758196672
55	1093	32.8	6.4024205610596
55	1114	32.9	6.0599831174278
55	1115	33	6.8489721148975
55	1148	33.1	6.624222050076
55	1149	33.2	5.5787439327979
55	1150	33.3	7.0539143546993
55	1151	33.4	6.7544797029027
55	1152	33.5	6.3092437716203
55	1167	33.6	6.8931775317416
55	1168	33.7	5.9497379250807
55	1177	33.8	6.9336771689185
55	1178	33.9	6.6490830463792
55	1217	34	7.6585682767172
55	1218	34.1	5.9860159238585
55	1219	34.2	8.5227669759517
55	1276	34.3	8.4996075238306
55	1291	34.4	6.8652973089726
55	1292	34.5	7.4956814589137
55	1293	34.6	7.6984004453055
55	1294	34.7	7.4782829216311
55	1295	34.8	7.9831126493093
55	1296	34.9	7.8120187471944
55	1297	35	6.6568067752391
55	1298	35.1	10.018899624074
55	1299	35.2	8.9778079571442
55	1300	35.3	7.5885884321211
55	1301	35.4	10.52566729662
55	1302	35.5	7.0202625307243
55	1303	35.6	1.2187815646005
55	1304	35.7	1.2335719107919
55	1305	35.8	1.2627435828537
55	1306	35.9	5.6349809752342
55	1307	36	1.5611452006684
55	1308	36.1	0.973
55	1309	36.2	5.2812499358777
55	1310	36.3	0.973
55	1311	36.4	2.983195977992
55	1312	36.5	0.973
55	1313	36.6	3.4974837784057
55	1314	36.7	0.973
55	1315	36.8	2.0118270289941
55	1316	36.9	4.0581167201679
55	1317	37	0.973
55	1318	37.1	4.2314080311692
55	1319	37.2	1.2733272889908
55	1320	37.3	2.823639407393
55	1321	37.4	0.973
55	1322	37.5	1.524053854702
55	1323	37.6	3.9567100386437
55	1324	37.7	1.2430576388723
55	1325	37.8	0.973
55	1326	37.9	3.8438660685714
55	1327	38	1.2149555935997
55	1328	38.1	0.973
55	1329	38.2	1.8238217083515
55	1330	38.3	5.1495182932115
55	1331	38.4	2.2414923006601
55	1332	38.5	0.973
55	1333	38.6	2.4354586577792
55	1366	38.7	2.9215780951413
54	166	8.3	2.4693884058534
54	167	8.4	2.4434967458012
54	168	8.5	2.412386255906
54	169	8.6	2.589637225778
54	170	8.7	2.0354790821962
54	171	8.8	2.4466310824211
54	172	8.9	1.6777830527908
54	173	9	2.069627123972
54	174	9.1	2.2888606205627
54	183	9.2	2.2011426491247
54	184	9.3	1.8595544085838
54	185	9.4	2.5245620887959
54	186	9.5	1.797044705064
54	187	9.6	2.0101941086352
54	188	9.7	2.0071809895802
54	189	9.8	2.1839777117828
54	190	9.9	2.5999280445278
54	191	10	1.3613708443008
54	192	10.1	1.4556131141726
54	213	10.2	2.3302888976643
54	214	10.3	1.8371803510701
54	215	10.4	1.6680824161274
54	216	10.5	1.9655268300092
54	217	10.6	1.4251643386204
54	218	10.7	2.220208210079
54	219	10.8	1.729108495079
54	220	10.9	1.9686841284856
54	221	11	2.2987878868356
54	222	11.1	1.463425639132
54	223	11.2	2.1485964347376
54	224	11.3	2.5947374627693
54	225	11.4	2.0785279560834
54	226	11.5	2.1533128506737
54	227	11.6	2.2076198634226
54	228	11.7	2.5818670823704
54	229	11.8	1.7193646281958
54	230	11.9	2.10725609574
54	231	12	1.9656850571046
54	232	12.1	2.0365293308161
54	259	12.2	-1.6531625673636
54	260	12.3	-3.0761483309368
54	261	12.4	-3.2120623331472
54	262	12.5	-3.1062323652841
54	263	12.6	-2.8514909751443
54	264	12.7	-3.1138257258611
54	265	12.8	-2.7286253243568
54	266	12.9	-2.5330954484075
54	267	13	-1.9797027356942
54	268	13.1	-3.0910820638676
54	269	13.2	-2.6264583837476
54	270	13.3	-1.7518109863014
54	271	13.4	-3.5285041747696
54	272	13.5	-1.9024765494064
54	273	13.6	-2.4139329909004
54	274	13.7	-1.8141217874717
54	275	13.8	-2.1295206291666
54	276	13.9	-2.2455688474546
54	277	14	-2.851867977953
54	278	14.1	-2.1452086241705
54	299	14.2	2.6
54	300	14.3	2.6
54	301	14.4	2.6
54	302	14.5	2.6
54	303	14.6	2.6
54	304	14.7	2.6
54	325	14.8	2.6
54	326	14.9	2.6
54	327	15	2.6
54	328	15.1	2.5668534402736
54	337	15.2	1.4789858877193
54	338	15.3	2.0971247036243
54	339	15.4	1.4569948070683
54	340	15.5	2.5681143796537
54	341	15.6	1.7910996202612
54	342	15.7	1.658607797185
54	343	15.8	2.578066821699
54	344	15.9	1.8948058919748
54	345	16	1.7897169251926
54	346	16.1	2.106837102701
54	373	16.2	2.5531560311094
54	374	16.3	2.0196872609668
54	375	16.4	2.2783816214651
54	376	16.5	1.7256430013338
54	377	16.6	1.3387116551166
54	378	16.7	1.7770193876931
54	379	16.8	2.1391421225853
54	380	16.9	2.0174143206328
54	381	17	2.246101826313
54	382	17.1	2.3667669117916
54	415	17.2	1.8249255463947
54	416	17.3	2.4735646012938
54	417	17.4	1.9848529339535
54	418	17.5	2.0750694330549
54	419	17.6	2.112821486243
54	434	17.7	2.0734537062934
54	435	17.8	1.7346189513104
54	436	17.9	1.918560988293
54	437	18	2.2004110452021
54	438	18.1	1.4868409618968
54	483	18.2	1.9132956806337
54	484	18.3	1.4581157591427
54	485	18.4	2.2608241496608
54	530	18.5	1.3380491270916
54	531	18.6	1.9400737909134
54	532	18.7	2.5982016386464
54	533	18.8	1.371465191734
54	534	18.9	2.3841378326295
54	535	19	2.0450243328232
54	536	19.1	2.4600969824241
54	581	19.2	0.36362117490551
54	582	19.3	-0.38357417886145
54	609	19.4	0.55225082857069
54	610	19.5	0.062389430659824
54	611	19.6	-0.066594341886237
54	612	19.7	0.10840515401215
54	613	19.8	-0.50640971274115
54	614	19.9	0.31825747943948
54	615	20	-0.38992214838508
54	616	20.1	0.19587913861033
54	617	20.2	-0.25298671470955
54	618	20.3	0.10341932123993
54	627	20.4	0.16878602125216
54	628	20.5	-0.02988396922591
54	629	20.6	-0.31685759245885
54	630	20.7	0.030634879157887
54	631	20.8	-0.22468639605213
54	632	20.9	0.65015378284734
54	633	21	-0.62230812108609
54	634	21.1	-0.19180854458828
54	635	21.2	0.47112649700138
54	636	21.3	0.38212404157967
54	637	21.4	-0.51167749965098
54	638	21.5	0.46967714063356
54	639	21.6	-0.89791561672463
54	640	21.7	-0.043425122043121
54	641	21.8	0.22042975744698
54	642	21.9	0.38180278143846
54	643	22	0.05225405860692
54	644	22.1	-0.36051488446537
54	645	22.2	-0.23934708531016
54	646	22.3	0.26872130506673
54	647	22.4	0.083252954762418
54	648	22.5	-0.43444355621467
54	649	22.6	0.11870980521199
54	650	22.7	1.0185860015219
54	651	22.8	-0.082299154903733
54	652	22.9	-0.33803750597871
54	653	23	0.15133909932336
54	654	23.1	-0.59054287106264
54	655	23.2	0.56132120224648
54	656	23.3	0.11590898700524
54	707	23.4	-0.92960139240605
54	708	23.5	0.78097143380438
54	709	23.6	-0.1708862352185
54	710	23.7	0.26923044947909
54	711	23.8	-0.76399592391681
54	712	23.9	0.11632796006742
54	713	24	0.41140901497565
54	714	24.1	-0.2161267128773
54	715	24.2	0.13493483255152
54	716	24.3	0.54421714604832
54	717	24.4	0.054661422991202
54	718	24.5	-0.23557941175532
54	719	24.6	-0.22572602713479
54	720	24.7	-0.31338433073834
54	721	24.8	0.2034480317263
54	760	24.9	0.30570770902559
54	761	25	-0.069394619204104
54	762	25.1	-0.78095330751967
54	771	25.2	1.0702242701082
54	772	25.3	-0.072504056734033
54	773	25.4	-0.87085597182158
54	774	25.5	0.96445779839996
54	775	25.6	-0.58596099298448
54	776	25.7	0.67280122200026
54	777	25.8	-0.97735316290054
54	778	25.9	-0.011486540292385
54	779	26	0.02488151751459
54	780	26.1	0.29261973844841
54	781	26.2	0.27711642878129
54	782	26.3	-0.14586889254861
54	783	26.4	0.36563879190945
54	784	26.5	0.021669941279097
54	785	26.6	-0.81636545427608
54	794	26.7	0.34693379092495
54	795	26.8	0.19963310319
54	816	26.9	-0.18670075212139
54	817	27	-0.81590293864096
54	818	27.1	-3.9522233394643
54	819	27.2	-2.7487425574958
54	820	27.3	-4.4838806276743
54	821	27.4	-3.0533773971715
54	822	27.5	-2.7020805584778
54	823	27.6	-3.8753078726665
54	824	27.7	-3.7765612432194
54	825	27.8	-3.002003402254
54	858	27.9	-3.1982360585317
54	909	28	-2.866545286421
54	924	28.1	-3.1606838553067
54	925	28.2	-3.2829256569944
54	926	28.3	-3.2630739498941
54	927	28.4	-3.3750814844567
54	928	28.5	-2.0939681297642
54	929	28.6	-3.3618271612704
54	930	28.7	-3.978420554193
54	931	28.8	-2.2544990438856
54	932	28.9	-2.7874407574833
54	933	29	-2.9033519056348
54	934	29.1	-3.3087898298847
54	935	29.2	-2.0275406680066
54	936	29.3	-3.3183023933544
54	993	29.4	-2.2247898599649
54	994	29.5	-2.9577053293317
54	995	29.6	-3.1509849921335
54	996	29.7	-1.7375850800315
54	1011	29.8	-3.2538485520841
54	1012	29.9	-2.7903033059575
54	1013	30	-1.5418870286341
54	1014	30.1	-3.3995023117535
54	1015	30.2	-1.4712452188317
54	1016	30.3	-3.0778827566434
54	1017	30.4	-1.1507514156596
54	1018	30.5	-2.4833610390239
54	1019	30.6	-2.7212029682417
54	1020	30.7	2.6
54	1021	30.8	2.6
54	1022	30.9	2.6
54	1023	31	2.6
54	1024	31.1	1.8306936612586
54	1039	31.2	2.6
54	1040	31.3	2.6
54	1041	31.4	2.6
54	1042	31.5	2.6
54	1043	31.6	2.1821514941985
54	1044	31.7	2.447715544072
54	1045	31.8	1.9253966168035
54	1046	31.9	1.3883262547431
54	1047	32	2.5574407423614
54	1048	32.1	1.9658099158667
54	1049	32.2	2.0045727471821
54	1050	32.3	1.5855190002359
54	1051	32.4	2.5235486628255
54	1052	32.5	1.6943182630697
54	1091	32.6	2.0053946945583
54	1092	32.7	2.4297847633017
54	1093	32.8	2.4357222178485
54	1114	32.9	2.1974759830395
54	1115	33	2.5017061232123
54	1148	33.1	2.3250266240677
54	1149	33.2	1.7983960252488
54	1150	33.3	2.3978848113678
54	1151	33.4	2.2062237460166
54	1152	33.5	1.9669725708664
54	1167	33.6	2.1599311571801
54	1168	33.7	1.7331379727693
54	1177	33.8	2.0849600718124
54	1178	33.9	1.9293645872269
54	1217	34	2.269487883267
54	1218	34.1	1.5986601229059
54	1219	34.2	2.4939964101184
54	1276	34.3	2.4254528745543
54	1291	34.4	1.7998085318599
54	1292	34.5	1.9845985603053
54	1293	34.6	2.0151564389234
54	1294	34.7	1.9033521255711
54	1295	34.8	2.0345582131296
54	1296	34.9	1.9411993319169
54	1297	35	1.5381273143226
54	1298	35.1	2.5701438870048
54	1299	35.2	2.1951157804113
54	1300	35.3	1.7323569086613
54	1301	35.4	2.5822479731636
54	1302	35.5	1.4986469758023
54	1303	35.6	-0.24063666879666
54	1304	35.7	-0.2358809247613
54	1305	35.8	-0.22678819394205
54	1306	35.9	1.0791902682744
54	1307	36	-0.13877270543016
54	1308	36.1	-0.78430747198873
54	1309	36.2	0.97290923751425
54	1310	36.3	-0.66989948700648
54	1311	36.4	0.28789390765597
54	1312	36.5	-0.55718252765947
54	1313	36.6	0.44276969768108
54	1314	36.7	-0.3491214720998
54	1315	36.8	-0.0018776519689645
54	1316	36.9	0.60904257914517
54	1317	37	-0.47450297079049
54	1318	37.1	0.65949155569541
54	1319	37.2	-0.22480155634693
54	1320	37.3	0.23843480283393
54	1321	37.4	-0.67565646022558
54	1322	37.5	-0.14855288995895
54	1323	37.6	0.57901260533836
54	1324	37.7	-0.23354411686306
54	1325	37.8	-0.33418261311017
54	1326	37.9	0.54536626671908
54	1327	38	-0.24193666840439
54	1328	38.1	-0.30266227042302
54	1329	38.2	-0.058260009903464
54	1330	38.3	0.93330431154465
54	1331	38.4	0.063917498919182
54	1332	38.5	-1.0988447701559
54	1333	38.6	0.12569087350276
54	1366	38.7	0.27058857723604
53	165	8.2	0.25389976076828
53	166	8.3	0.50083860135362
53	167	8.4	0.74518827593374
53	168	8.5	0.98642690152434
53	169	8.6	1.2453906241021
53	170	8.7	1.4489385323218
53	171	8.8	1.6936016405639
53	172	8.9	1.8613799458429
53	173	9	2.0683426582401
53	174	9.1	2.2972287202964
53	183	9.2	2.5173429852089
53	184	9.3	2.7032984260673
53	185	9.4	2.9557546349469
53	186	9.5	3.1354591054533
53	187	9.6	3.3364785163168
53	188	9.7	3.5371966152748
53	189	9.8	3.7555943864531
53	190	9.9	4.0155871909059
53	191	10	4.1517242753359
53	192	10.1	4.2972855867532
53	213	10.2	4.5303144765196
53	214	10.3	4.7140325116266
53	215	10.4	4.8808407532394
53	216	10.5	5.0773934362403
53	217	10.6	5.2199098701023
53	218	10.7	5.4419306911102
53	219	10.8	5.6148415406181
53	220	10.9	5.8117099534667
53	221	11	6.0415887421503
53	222	11.1	6.1879313060635
53	223	11.2	6.4027909495372
53	224	11.3	6.6622646958142
53	225	11.4	6.8701174914225
53	226	11.5	7.0854487764899
53	227	11.6	7.3062107628321
53	228	11.7	7.5643974710692
53	229	11.8	7.7363339338887
53	230	11.9	7.9470595434627
53	231	12	8.1436280491732
53	232	12.1	8.3472809822548
53	259	12.2	8.1819647255185
53	260	12.3	7.8743498924248
53	261	12.4	7.5531436591101
53	262	12.5	7.2425204225816
53	263	12.6	6.9573713250672
53	264	12.7	6.6459887524811
53	265	12.8	6.3731262200454
53	266	12.9	6.1198166752047
53	267	13	5.9218464016352
53	268	13.1	5.6127381952485
53	269	13.2	5.3500923568737
53	270	13.3	5.1749112582436
53	271	13.4	4.8220608407666
53	272	13.5	4.631813185826
53	273	13.6	4.3904198867359
53	274	13.7	4.2090077079888
53	275	13.8	3.9960556450721
53	276	13.9	3.7714987603267
53	277	14	3.4863119625314
53	278	14.1	3.2717911001143
53	299	14.2	3.5317911001143
53	300	14.3	3.7917911001143
53	301	14.4	4.0517911001143
53	302	14.5	4.3117911001143
53	303	14.6	4.5717911001143
53	304	14.7	4.8317911001143
53	325	14.8	5.0917911001143
53	326	14.9	5.3517911001143
53	327	15	5.6117911001143
53	328	15.1	5.8684764441417
53	337	15.2	6.0163750329136
53	338	15.3	6.226087503276
53	339	15.4	6.3717869839828
53	340	15.5	6.6285984219482
53	341	15.6	6.8077083839743
53	342	15.7	6.9735691636928
53	343	15.8	7.2313758458627
53	344	15.9	7.4208564350602
53	345	16	7.5998281275795
53	346	16.1	7.8105118378496
53	373	16.2	8.0658274409605
53	374	16.3	8.2677961670572
53	375	16.4	8.4956343292037
53	376	16.5	8.6681986293371
53	377	16.6	8.8020697948487
53	378	16.7	8.9797717336181
53	379	16.8	9.1936859458766
53	380	16.9	9.3954273779399
53	381	17	9.6200375605712
53	382	17.1	9.8567142517503
53	415	17.2	10.03920680639
53	416	17.3	10.286563266519
53	417	17.4	10.485048559915
53	418	17.5	10.69255550322
53	419	17.6	10.903837651844
53	434	17.7	11.111183022474
53	435	17.8	11.284644917605
53	436	17.9	11.476501016434
53	437	18	11.696542120954
53	438	18.1	11.845226217144
53	483	18.2	12.036555785207
53	484	18.3	12.182367361122
53	485	18.4	12.408449776088
53	530	18.5	12.542254688797
53	531	18.6	12.736262067888
53	532	18.7	12.996082231753
53	533	18.8	13.133228750926
53	534	18.9	13.371642534189
53	535	19	13.576144967471
53	536	19.1	13.822154665714
53	581	19.2	13.858516783204
53	582	19.3	13.820159365318
53	609	19.4	13.875384448175
53	610	19.5	13.881623391241
53	611	19.6	13.874963957053
53	612	19.7	13.885804472454
53	613	19.8	13.83516350118
53	614	19.9	13.866989249124
53	615	20	13.827997034285
53	616	20.1	13.847584948146
53	617	20.2	13.822286276675
53	618	20.3	13.832628208799
53	627	20.4	13.849506810925
53	628	20.5	13.846518414002
53	629	20.6	13.814832654756
53	630	20.7	13.817896142672
53	631	20.8	13.795427503067
53	632	20.9	13.860442881351
53	633	21	13.798212069243
53	634	21.1	13.779031214784
53	635	21.2	13.826143864484
53	636	21.3	13.864356268642
53	637	21.4	13.813188518677
53	638	21.5	13.86015623274
53	639	21.6	13.770364671068
53	640	21.7	13.766022158863
53	641	21.8	13.788065134608
53	642	21.9	13.826245412752
53	643	22	13.831470818613
53	644	22.1	13.795419330166
53	645	22.2	13.771484621635
53	646	22.3	13.798356752142
53	647	22.4	13.806682047618
53	648	22.5	13.763237691997
53	649	22.6	13.775108672518
53	650	22.7	13.87696727267
53	651	22.8	13.86873735718
53	652	22.9	13.834933606582
53	653	23	13.850067516514
53	654	23.1	13.791013229408
53	655	23.2	13.847145349632
53	656	23.3	13.858736248333
53	707	23.4	13.765776109092
53	708	23.5	13.843873252473
53	709	23.6	13.826784628951
53	710	23.7	13.853707673899
53	711	23.8	13.777308081507
53	712	23.9	13.788940877514
53	713	24	13.830081779012
53	714	24.1	13.808469107724
53	715	24.2	13.821962590979
53	716	24.3	13.876384305584
53	717	24.4	13.881850447883
53	718	24.5	13.858292506707
53	719	24.6	13.835719903994
53	720	24.7	13.80438147092
53	721	24.8	13.824726274093
53	760	24.9	13.855297044995
53	761	25	13.848357583075
53	762	25.1	13.770262252323
53	771	25.2	13.877284679334
53	772	25.3	13.87003427366
53	773	25.4	13.782948676478
53	774	25.5	13.879394456318
53	775	25.6	13.82079835702
53	776	25.7	13.88807847922
53	777	25.8	13.79034316293
53	778	25.9	13.7891945089
53	779	26	13.791682660652
53	780	26.1	13.820944634497
53	781	26.2	13.848656277375
53	782	26.3	13.83406938812
53	783	26.4	13.870633267311
53	784	26.5	13.872800261439
53	785	26.6	13.791163716011
53	794	26.7	13.825857095104
53	795	26.8	13.845820405423
53	816	26.9	13.827150330211
53	817	27	13.745560036346
53	818	27.1	13.3503377024
53	819	27.2	13.07546344665
53	820	27.3	12.627075383883
53	821	27.4	12.321737644166
53	822	27.5	12.051529588318
53	823	27.6	11.663998801051
53	824	27.7	11.28634267673
53	825	27.8	10.986142336504
53	858	27.9	10.666318730651
53	909	28	10.379664202009
53	924	28.1	10.063595816478
53	925	28.2	9.7353032507787
53	926	28.3	9.4089958557893
53	927	28.4	9.0714877073436
53	928	28.5	8.8620908943672
53	929	28.6	8.5259081782402
53	930	28.7	8.1280661228209
53	931	28.8	7.9026162184323
53	932	28.9	7.623872142684
53	933	29	7.3335369521205
53	934	29.1	7.0026579691321
53	935	29.2	6.7999039023314
53	936	29.3	6.468073662996
53	993	29.4	6.2455946769995
53	994	29.5	5.9498241440663
53	995	29.6	5.6347256448529
53	996	29.7	5.4609671368498
53	1011	29.8	5.1355822816414
53	1012	29.9	4.8565519510456
53	1013	30	4.7023632481822
53	1014	30.1	4.3624130170069
53	1015	30.2	4.2152884951237
53	1016	30.3	3.9075002194594
53	1017	30.4	3.7924250778934
53	1018	30.5	3.544088973991
53	1019	30.6	3.2719686771669
53	1020	30.7	3.5319686771669
53	1021	30.8	3.7919686771669
53	1022	30.9	4.0519686771669
53	1023	31	4.3119686771669
53	1024	31.1	4.4950380432927
53	1039	31.2	4.7550380432927
53	1040	31.3	5.0150380432927
53	1041	31.4	5.2750380432927
53	1042	31.5	5.5350380432927
53	1043	31.6	5.7532531927126
53	1044	31.7	5.9980247471198
53	1045	31.8	6.1905644088001
53	1046	31.9	6.3293970342744
53	1047	32	6.5851411085106
53	1048	32.1	6.7817221000972
53	1049	32.2	6.9821793748154
53	1050	32.3	7.140731274839
53	1051	32.4	7.3930861411216
53	1052	32.5	7.5625179674286
53	1091	32.6	7.7630574368844
53	1092	32.7	8.0060359132146
53	1093	32.8	8.2496081349994
53	1114	32.9	8.4693557333034
53	1115	33	8.7195263456246
53	1148	33.1	8.9520290080314
53	1149	33.2	9.1318686105562
53	1150	33.3	9.371657091693
53	1151	33.4	9.5922794662947
53	1152	33.5	9.7889767233813
53	1167	33.6	10.004969839099
53	1168	33.7	10.178283636376
53	1177	33.8	10.386779643558
53	1178	33.9	10.57971610228
53	1217	34	10.806664890607
53	1218	34.1	10.966530902897
53	1219	34.2	11.215930543909
53	1276	34.3	11.458475831365
53	1291	34.4	11.638456684551
53	1292	34.5	11.836916540581
53	1293	34.6	12.038432184474
53	1294	34.7	12.228767397031
53	1295	34.8	12.432223218344
53	1296	34.9	12.626343151535
53	1297	35	12.780155882968
53	1298	35.1	13.037170271668
53	1299	35.2	13.256681849709
53	1300	35.3	13.429917540575
53	1301	35.4	13.688142337892
53	1302	35.5	13.838007035472
53	1303	35.6	13.813943368592
53	1304	35.7	13.790355276116
53	1305	35.8	13.767676456722
53	1306	35.9	13.875595483549
53	1307	36	13.861718213006
53	1308	36.1	13.783287465808
53	1309	36.2	13.880578389559
53	1310	36.3	13.813588440858
53	1311	36.4	13.842377831624
53	1312	36.5	13.786659578858
53	1313	36.6	13.830936548626
53	1314	36.7	13.796024401416
53	1315	36.8	13.795836636219
53	1316	36.9	13.856740894134
53	1317	37	13.809290597055
53	1318	37.1	13.875239752624
53	1319	37.2	13.852759596989
53	1320	37.3	13.876603077273
53	1321	37.4	13.80903743125
53	1322	37.5	13.794182142254
53	1323	37.6	13.852083402788
53	1324	37.7	13.828728991102
53	1325	37.8	13.795310729791
53	1326	37.9	13.849847356463
53	1327	38	13.825653689622
53	1328	38.1	13.79538746258
53	1329	38.2	13.78956146159
53	1330	38.3	13.882891892744
53	1331	38.4	13.889283642636
53	1332	38.5	13.779399165621
53	1333	38.6	13.791968252971
53	1366	38.7	13.819027110694
52	150	8.1	1756.3437279736
52	165	8.2	1756.3437279736
52	166	8.3	1756.3185059097
52	167	8.4	1756.2687532706
52	168	8.5	1756.1947272605
52	169	8.6	1756.0967369268
52	170	8.7	1755.9730214821
52	171	8.8	1755.8290858595
52	172	8.9	1755.6608457297
52	173	9	1755.4759387268
52	174	9.1	1755.2704723238
52	183	9.2	1755.0422686845
52	184	9.3	1754.7921991875
52	185	9.4	1754.5236571249
52	186	9.5	1754.2300363989
52	187	9.6	1753.9185640704
52	188	9.7	1753.5871227415
52	189	9.8	1753.2357423442
52	190	9.9	1752.8626666033
52	191	10	1752.4637635238
52	192	10.1	1752.0513367678
52	213	10.2	1751.6244501451
52	214	10.3	1751.1744147431
52	215	10.4	1750.7061290363
52	216	10.5	1750.2212728211
52	217	10.6	1749.7168913244
52	218	10.7	1749.1983524351
52	219	10.8	1748.6577582933
52	220	10.9	1748.0999874182
52	221	11	1747.5226598974
52	222	11.1	1746.922496524
52	223	11.2	1746.3077956755
52	224	11.3	1745.6717509563
52	225	11.4	1745.009930461
52	226	11.5	1744.327462146
52	227	11.6	1743.6207756267
52	228	11.7	1742.890678728
52	229	11.8	1742.1347816818
52	230	11.9	1741.3617033247
52	231	12	1740.567567525
52	232	12.1	1739.7537889774
52	259	12.2	1738.9196597473
52	260	12.3	1738.1020502825
52	261	12.4	1737.3151802314
52	262	12.5	1736.560407759
52	263	12.6	1735.8366753248
52	264	12.7	1735.1414373427
52	265	12.8	1734.4773152779
52	266	12.9	1733.8404598901
52	267	13	1733.2289172834
52	268	13.1	1732.6371575007
52	269	13.2	1732.0762863621
52	270	13.3	1731.541660964
52	271	13.4	1731.0245411075
52	272	13.5	1730.5426809778
52	273	13.6	1730.0798319645
52	274	13.7	1729.6411049626
52	275	13.8	1729.2205061633
52	276	13.9	1728.8211872922
52	277	14	1728.4443079989
52	278	14.1	1728.095926925
52	299	14.2	1727.7689825467
52	300	14.3	1727.4160568219
52	301	14.4	1727.0371497505
52	302	14.5	1726.6322613326
52	303	14.6	1726.2013915682
52	304	14.7	1725.7445404572
52	325	14.8	1725.2617079997
52	326	14.9	1724.7528941957
52	327	15	1724.2180990451
52	328	15.1	1723.657322548
52	337	15.2	1723.0732648644
52	338	15.3	1722.4750950348
52	339	15.4	1721.8560748305
52	340	15.5	1721.2225686555
52	341	15.6	1720.5731269645
52	342	15.7	1719.9812290148
52	343	15.8	1719.3749102572
52	344	15.9	1718.7461764315
52	345	16	1718.2962206252
52	346	16.1	1717.9047798024
52	373	16.2	1717.5024873914
52	374	16.3	1717.2906846357
52	375	16.4	1717.1825437658
52	376	16.5	1717.0714228252
52	377	16.6	1716.9818268246
52	378	16.7	1716.9914063509
52	379	16.8	1717.0011792749
52	380	16.9	1717.0111850075
52	381	17	1717.0214103006
52	382	17.1	1717.0318800429
52	415	17.2	1717.0426073667
52	416	17.3	1717.0535333021
52	417	17.4	1717.064728442
52	418	17.5	1717.0761395988
52	419	17.6	1717.0877765908
52	434	17.7	1717.0996435269
52	435	17.8	1717.1117361224
52	436	17.9	1717.1240175011
52	437	18	1717.1365076819
52	438	18.1	1717.1492373393
52	483	18.2	1717.1621288135
52	484	18.3	1717.1752285168
52	485	18.4	1717.1884869107
52	530	18.5	1717.201991356
52	531	18.6	1717.2156414249
52	532	18.7	1717.2295026371
52	533	18.8	1717.2436466184
52	534	18.9	1717.25793986
52	535	19	1717.2724925736
52	536	19.1	1717.2872678527
52	581	19.2	1717.3023108707
52	582	19.3	1717.3173934625
52	609	19.4	1717.3324343089
52	610	19.5	1717.3475352582
52	611	19.6	1717.3626429975
52	612	19.7	1717.3777434892
52	613	19.8	1717.392855779
52	614	19.9	1717.4079129548
52	615	20	1717.4230047674
52	616	20.1	1717.4380541437
52	617	20.2	1717.4531248381
52	618	20.3	1717.4681679993
52	627	20.4	1717.4832224159
52	628	20.5	1717.4982952019
52	629	20.6	1717.5133647356
52	630	20.7	1717.5283997848
52	631	20.8	1717.5434381681
52	632	20.9	1717.5584520981
52	633	21	1717.5735367861
52	634	21.1	1717.5885537467
52	635	21.2	1717.5728565468
52	636	21.3	1717.5538183994
52	637	21.4	1717.5347276348
52	638	21.5	1717.5157073265
52	639	21.6	1717.4966223452
52	640	21.7	1717.477661004
52	641	21.8	1717.4587056422
52	642	21.9	1717.439719928
52	643	22	1717.4206816408
52	644	22.1	1717.4016361584
52	645	22.2	1717.3826403177
52	646	22.3	1717.3636774343
52	647	22.4	1717.3446775489
52	648	22.5	1717.3256661998
52	649	22.6	1717.3067146721
52	650	22.7	1717.2877467986
52	651	22.8	1717.268638669
52	652	22.9	1717.2495418718
52	653	23	1717.2304916212
52	654	23.1	1717.1241042708
52	655	23.2	1716.6756487512
52	656	23.3	1715.6490312878
52	707	23.4	1714.3054871019
52	708	23.5	1712.9306633955
52	709	23.6	1711.5462765066
52	710	23.7	1710.1635984796
52	711	23.8	1708.7782281489
52	712	23.9	1707.4004977751
52	713	24	1706.021604122
52	714	24.1	1704.63859638
52	715	24.2	1703.2577499045
52	716	24.3	1701.8755540811
52	717	24.4	1700.487916088
52	718	24.5	1699.0997314808
52	719	24.6	1697.713902667
52	720	24.7	1696.3303311127
52	721	24.8	1694.9498934007
52	760	24.9	1693.5674212091
52	761	25	1692.1818919414
52	762	25.1	1690.7970566196
52	771	25.2	1689.4200308284
52	772	25.3	1688.0323027979
52	773	25.4	1686.6452998078
52	774	25.5	1685.2670051939
52	775	25.6	1683.8790655135
52	776	25.7	1682.4969854439
52	777	25.8	1681.108177361
52	778	25.9	1679.7291428113
52	779	26	1678.3502231271
52	780	26.1	1676.9710546277
52	781	26.2	1675.5889599304
52	782	26.3	1674.2040940683
52	783	26.4	1672.8206868954
52	784	26.5	1671.433623334
52	785	26.6	1670.0463430731
52	794	26.7	1668.6672264682
52	795	26.8	1667.2846405247
52	816	26.9	1665.9000582499
52	817	27	1664.5173429829
52	818	27.1	1663.1427867467
52	819	27.2	1661.8077527506
52	820	27.3	1660.5002061847
52	821	27.4	1659.2374984326
52	822	27.5	1658.0053244597
52	823	27.6	1656.800171297
52	824	27.7	1655.6337712195
52	825	27.8	1654.5051367609
52	858	27.9	1653.4065223413
52	909	28	1652.3398902878
52	924	28.1	1651.3019236919
52	925	28.2	1650.29556394
52	926	28.3	1649.3220334502
52	927	28.4	1648.3811337054
52	928	28.5	1647.4739847812
52	929	28.6	1646.5877755418
52	930	28.7	1645.7351845797
52	931	28.8	1644.9223778299
52	932	28.9	1644.1321160743
52	933	29	1643.3697287311
52	934	29.1	1642.6363749118
52	935	29.2	1641.9361089964
52	936	29.3	1641.2561184911
52	993	29.4	1640.6093110153
52	994	29.5	1639.984751442
52	995	29.6	1639.3897689269
52	996	29.7	1638.8262962671
52	1011	29.8	1638.280199461
52	1012	29.9	1637.7666411459
52	1013	30	1637.2809858686
52	1014	30.1	1636.8107494642
52	1015	30.2	1636.3745080887
52	1016	30.3	1635.9529791679
52	1017	30.4	1635.5622290798
52	1018	30.5	1635.1829865079
52	1019	30.6	1634.8285775505
52	1020	30.7	1634.5013806274
52	1021	30.8	1634.1481836999
52	1022	30.9	1633.7689867681
52	1023	31	1633.3637898318
52	1024	31.1	1632.9325928911
52	1039	31.2	1632.5067392334
52	1040	31.3	1632.113374648
52	1041	31.4	1631.6985013404
52	1042	31.5	1631.3196708456
52	1043	31.6	1631.0678496397
52	1044	31.7	1631.133117045
52	1045	31.8	1631.4171558745
52	1046	31.9	1631.9349813356
52	1047	32	1632.4644198037
52	1048	32.1	1633.0905077857
52	1049	32.2	1633.7685968788
52	1050	32.3	1634.4667292425
52	1051	32.4	1635.1807148531
52	1052	32.5	1635.9199328573
52	1091	32.6	1636.6760919677
52	1092	32.7	1637.4523025672
52	1093	32.8	1638.2528080363
52	1114	32.9	1639.0776677425
52	1115	33	1639.9244995152
52	1148	33.1	1640.796345283
52	1149	33.2	1641.6914384676
52	1150	33.3	1642.6045134082
52	1151	33.4	1643.5415642582
52	1152	33.5	1644.5006746416
52	1167	33.6	1645.47945234
52	1168	33.7	1646.4798267028
52	1177	33.8	1647.4975303212
52	1178	33.9	1648.5360809849
52	1217	34	1649.5939229299
52	1218	34.1	1650.6744569723
52	1219	34.2	1651.7709756565
52	1276	34.3	1652.8924312482
52	1291	34.4	1654.038138396
52	1292	34.5	1655.2018414233
52	1293	34.6	1656.3853880038
52	1294	34.7	1657.589083679
52	1295	34.8	1658.8118105426
52	1296	34.9	1660.0548804949
52	1297	35	1661.3173600613
52	1298	35.1	1662.5952190157
52	1299	35.2	1663.898776259
52	1300	35.3	1665.2242819698
52	1301	35.4	1666.5671091265
52	1302	35.5	1667.9357555981
52	1303	35.6	1669.3193867027
52	1304	35.7	1670.7006117356
52	1305	35.8	1672.0794782483
52	1306	35.9	1673.456077157
52	1307	36	1674.8434666458
52	1308	36.1	1676.2294685776
52	1309	36.2	1677.6076283959
52	1310	36.3	1678.9955161141
52	1311	36.4	1680.3767056586
52	1312	36.5	1681.7607737892
52	1313	36.6	1683.1392707775
52	1314	36.7	1684.5221949201
52	1315	36.8	1685.9016281539
52	1316	36.9	1687.2810420667
52	1317	37	1688.6665456558
52	1318	37.1	1690.0473047992
52	1319	37.2	1691.4346580466
52	1320	37.3	1692.819763555
52	1321	37.4	1694.2072531181
52	1322	37.5	1695.5879869479
52	1323	37.6	1696.9672354317
52	1324	37.7	1698.352273329
52	1325	37.8	1699.7349760726
52	1326	37.9	1701.1143374012
52	1327	38	1702.4991517214
52	1328	38.1	1703.8815469726
52	1329	38.2	1705.2609159736
52	1330	38.3	1706.6397024461
52	1331	38.4	1708.0278208133
52	1332	38.5	1709.4165782769
52	1333	38.6	1710.7943486449
52	1366	38.7	1712.173375767
51	150	8.1	6437.2324310417
51	165	8.2	6437.2324310417
51	166	8.3	6437.235330632
51	167	8.4	6437.2410503172
51	168	8.5	6437.2495605287
51	169	8.6	6437.2608257375
51	170	8.7	6437.275048368
51	171	8.8	6437.2915955598
51	172	8.9	6437.3109368572
51	173	9	6437.3321942192
51	174	9.1	6437.3558151401
51	183	9.2	6437.3820499895
51	184	9.3	6437.4107985914
51	185	9.4	6437.4416708447
51	186	9.5	6437.4754262025
51	187	9.6	6437.5112338244
51	188	9.7	6437.5493371314
51	189	9.8	6437.5897326826
51	190	9.9	6437.6326223836
51	191	10	6437.6784812587
51	192	10.1	6437.7258948488
51	213	10.2	6437.7749707805
51	214	10.3	6437.8267079527
51	215	10.4	6437.8805432246
51	216	10.5	6437.9362834827
51	217	10.6	6437.994268415
51	218	10.7	6438.0538809159
51	219	10.8	6438.1160289426
51	220	10.9	6438.1801516486
51	221	11	6438.2465226346
51	222	11.1	6438.315518886
51	223	11.2	6438.3861864013
51	224	11.3	6438.4593076601
51	225	11.4	6438.5353921654
51	226	11.5	6438.6138503945
51	227	11.6	6438.6572483481
51	228	11.7	6438.6835261547
51	229	11.8	6438.7107325659
51	230	11.9	6438.7385573706
51	231	12	6438.7671400794
51	232	12.1	6438.7964297742
51	259	12.2	6438.8264519352
51	260	12.3	6438.8558795132
51	261	12.4	6438.8842007115
51	262	12.5	6438.9113666468
51	263	12.6	6438.9374153823
51	264	12.7	6438.9624385392
51	265	12.8	6438.9863417653
51	266	12.9	6439.0092636032
51	267	13	6439.0312743779
51	268	13.1	6439.052573125
51	269	13.2	6439.0727601212
51	270	13.3	6439.092002475
51	271	13.4	6439.1106147656
51	272	13.5	6439.1279579804
51	273	13.6	6439.1446169429
51	274	13.7	6439.1604077008
51	275	13.8	6439.1755459844
51	276	13.9	6439.1899183562
51	277	14	6439.2034830779
51	278	14.1	6439.2160220854
51	299	14.2	6439.2277895387
51	300	14.3	6439.2404921183
51	301	14.4	6439.2541298242
51	302	14.5	6439.2687026563
51	303	14.6	6439.2842106148
51	304	14.7	6439.3006536995
51	325	14.8	6439.3180319105
51	326	14.9	6439.3363452478
51	327	15	6439.3555937114
51	328	15.1	6439.3757773013
51	337	15.2	6439.3301076234
51	338	15.3	6439.2661653313
51	339	15.4	6439.199994206
51	340	15.5	6439.1322745804
51	341	15.6	6439.0320187128
51	342	15.7	6438.6958436638
51	343	15.8	6438.3514781558
51	344	15.9	6437.9943817596
51	345	16	6437.4278097289
51	346	16.1	6436.7764778679
51	373	16.2	6436.1070896758
51	374	16.3	6435.3446625021
51	375	16.4	6434.5250685406
51	376	16.5	6433.6828887803
51	377	16.6	6432.8221417704
51	378	16.7	6431.9419246424
51	379	16.8	6431.0439371157
51	380	16.9	6430.124557921
51	381	17	6429.1850043506
51	382	17.1	6428.2229895029
51	415	17.2	6427.2373067133
51	416	17.3	6426.2333744577
51	417	17.4	6425.204706271
51	418	17.5	6424.1561893261
51	419	17.6	6423.0869214475
51	434	17.7	6421.9965251106
51	435	17.8	6420.8853939975
51	436	17.9	6419.7569164949
51	437	18	6418.6092531612
51	438	18.1	6417.4395854633
51	483	18.2	6416.2550491844
51	484	18.3	6415.0513797281
51	485	18.4	6413.8331289461
51	530	18.5	6412.5922696619
51	531	18.6	6411.3380297322
51	532	18.7	6410.0643888409
51	533	18.8	6408.7647656336
51	534	18.9	6407.4514276163
51	535	19	6406.1142479458
51	536	19.1	6404.7566177962
51	581	19.2	6403.3743863931
51	582	19.3	6401.9885187363
51	609	19.4	6400.6064868656
51	610	19.5	6399.2189324229
51	611	19.6	6397.8307540786
51	612	19.7	6396.4432416855
51	613	19.8	6395.0546452284
51	614	19.9	6393.6711129267
51	615	20	6392.2843980136
51	616	20.1	6390.9015823669
51	617	20.2	6389.5168079063
51	618	20.3	6388.1345633419
51	627	20.4	6386.7512845725
51	628	20.5	6385.3663179233
51	629	20.6	6383.9816501173
51	630	20.7	6382.6001509237
51	631	20.8	6381.2183453779
51	632	20.9	6379.8387867218
51	633	21	6378.452726453
51	634	21.1	6377.0728893372
51	635	21.2	6375.6950146259
51	636	21.3	6374.3124334909
51	637	21.4	6372.9260312075
51	638	21.5	6371.5447455759
51	639	21.6	6370.158763286
51	640	21.7	6368.7817599362
51	641	21.8	6367.4051908273
51	642	21.9	6366.0264174737
51	643	22	6364.6438261842
51	644	22.1	6363.2607123667
51	645	22.2	6361.8812036113
51	646	22.3	6360.5040882692
51	647	22.4	6359.1242857786
51	648	22.5	6357.7436507786
51	649	22.6	6356.3673601096
51	650	22.7	6354.9898823711
51	651	22.8	6353.6022190176
51	652	22.9	6352.2153786358
51	653	23	6350.8319185478
51	654	23.1	6349.4535274553
51	655	23.2	6348.1759708494
51	656	23.3	6347.2990083989
51	707	23.4	6347.0189204069
51	708	23.5	6346.9887673894
51	709	23.6	6346.9873080919
51	710	23.7	6346.9858505957
51	711	23.8	6346.9843902616
51	712	23.9	6346.9829379808
51	713	24	6346.9814844738
51	714	24.1	6346.9800266301
51	715	24.2	6346.9785710646
51	716	24.3	6346.9771140767
51	717	24.4	6346.9756513522
51	718	24.5	6346.9741880515
51	719	24.6	6346.972727234
51	720	24.7	6346.971268796
51	721	24.8	6346.9698136613
51	760	24.9	6346.9683563822
51	761	25	6346.9668958805
51	762	25.1	6346.9654361103
51	771	25.2	6346.9639845722
51	772	25.3	6346.9625217528
51	773	25.4	6346.9610596976
51	774	25.5	6346.9598593003
51	775	25.6	6346.9593357471
51	776	25.7	6346.9588144042
51	777	25.8	6346.9582905233
51	778	25.9	6346.9577703292
51	779	26	6346.9572501785
51	780	26.1	6346.9567299338
51	781	26.2	6346.9562085854
51	782	26.3	6346.9556861917
51	783	26.4	6346.9551643481
51	784	26.5	6346.9546411254
51	785	26.6	6346.9541178209
51	794	26.7	6346.9535975958
51	795	26.8	6346.9530760621
51	816	26.9	6346.9525537753
51	817	27	6346.9520321928
51	818	27.1	6346.9515136879
51	819	27.2	6346.9510100916
51	820	27.3	6346.9505168639
51	821	27.4	6346.9500405501
51	822	27.5	6346.9495757542
51	823	27.6	6346.949121151
51	824	27.7	6346.9486811661
51	825	27.8	6346.9482554269
51	858	27.9	6346.9478410118
51	909	28	6346.947438661
51	924	28.1	6346.9470471232
51	925	28.2	6346.9466675081
51	926	28.3	6346.9463002767
51	927	28.4	6346.9459453541
51	928	28.5	6346.9456031629
51	929	28.6	6346.9452688704
51	930	28.7	6346.9449472594
51	931	28.8	6346.9446406555
51	932	28.9	6346.944342556
51	933	29	6346.9440549712
51	934	29.1	6346.9437783383
51	935	29.2	6346.9435141867
51	936	29.3	6346.9432576833
51	993	29.4	6346.9430136971
51	994	29.5	6346.9427781031
51	995	29.6	6346.9425536661
51	996	29.7	6346.9423411152
51	1011	29.8	6346.9421351186
51	1012	29.9	6346.9419413961
51	1013	30	6346.9417581991
51	1014	30.1	6346.9415808184
51	1015	30.2	6346.9414162611
51	1016	30.3	6346.9412572536
51	1017	30.4	6346.9411098563
51	1018	30.5	6346.9409667999
51	1019	30.6	6346.9408331111
51	1020	30.7	6346.9407096871
51	1021	30.8	6346.9405764556
51	1022	30.9	6346.9404334164
51	1023	31	6346.9402805695
51	1024	31.1	6346.9401179151
51	1039	31.2	6346.863572003
51	1040	31.3	6346.59813086
51	1041	31.4	6346.3181757013
51	1042	31.5	6345.9726906986
51	1043	31.6	6345.4810397728
51	1044	31.7	6344.9676496491
51	1045	31.8	6344.442042083
51	1046	31.9	6344.0996091168
51	1047	32	6343.7494965814
51	1048	32.1	6343.640173711
51	1049	32.2	6343.6404294971
51	1050	32.3	6343.6406928439
51	1051	32.4	6343.6409621708
51	1052	32.5	6343.6412410158
51	1091	32.6	6343.6415262512
51	1092	32.7	6343.6418190504
51	1093	32.8	6343.642121014
51	1114	32.9	6343.6424321644
51	1115	33	6343.642751603
51	1148	33.1	6343.6430804773
51	1149	33.2	6343.6434181209
51	1150	33.3	6343.6437625475
51	1151	33.4	6343.6441160182
51	1152	33.5	6343.6444778101
51	1167	33.6	6343.6448470209
51	1168	33.7	6343.6452243782
51	1177	33.8	6343.6456082725
51	1178	33.9	6343.6460000305
51	1217	34	6343.6463990656
51	1218	34.1	6343.6468066605
51	1219	34.2	6343.647220285
51	1276	34.3	6343.6476433162
51	1291	34.4	6343.6480754954
51	1292	34.5	6343.648514463
51	1293	34.6	6343.6489609159
51	1294	34.7	6343.6494149693
51	1295	34.8	6343.6498762016
51	1296	34.9	6343.6503451077
51	1297	35	6343.6508213354
51	1298	35.1	6343.6513033644
51	1299	35.2	6343.6517950872
51	1300	35.3	6343.6522950894
51	1301	35.4	6343.6528016255
51	1302	35.5	6343.653317901
51	1303	35.6	6343.653839829
51	1304	35.7	6343.6543608494
51	1305	35.8	6343.6548809801
51	1306	35.9	6343.6554002554
51	1307	36	6343.6559236011
51	1308	36.1	6343.6564464235
51	1309	36.2	6343.6569662876
51	1310	36.3	6343.6574898212
51	1311	36.4	6343.6580108282
51	1312	36.5	6343.6585329211
51	1313	36.6	6343.6590529124
51	1314	36.7	6343.6595745737
51	1315	36.8	6343.6602653372
51	1316	36.9	6343.6617199038
51	1317	37	6343.6631808917
51	1318	37.1	6343.6646368768
51	1319	37.2	6343.6660998152
51	1320	37.3	6343.6675603834
51	1321	37.4	6343.6690234655
51	1322	37.5	6343.6704794238
51	1323	37.6	6343.6719338159
51	1324	37.7	6343.6733943128
51	1325	37.8	6343.6748523474
51	1326	37.9	6343.6763068584
51	1327	38	6343.6777671196
51	1328	38.1	6343.6792248298
51	1329	38.2	6343.680679349
51	1330	38.3	6343.6821332539
51	1331	38.4	6343.6835969991
51	1332	38.5	6343.6850614182
51	1333	38.6	6343.6865142516
51	1366	38.7	6343.6879684103
2	2	0.1	4664.1728720718
2	11	0.2	4664.1728720718
2	12	0.3	4664.1753203819
2	13	0.4	4664.1801388867
2	14	0.5	4664.1872124528
2	15	0.6	4664.1963985421
2	16	0.7	4664.2077492991
2	17	0.8	4664.2210225393
2	18	0.9	4664.2363829661
2	19	1	4664.2535034313
2	20	1.1	4664.272725302
2	21	1.2	4664.2937867711
2	22	1.3	4664.3166041568
2	23	1.4	4664.3414551125
2	24	1.5	4664.3682726685
2	25	1.6	4664.3972331083
2	26	1.7	4664.4275884674
2	27	1.8	4664.4603898312
2	28	1.9	4664.4944956269
2	29	2	4664.5307756207
2	30	2.1	4664.5690903677
2	39	2.2	4664.6093212693
2	40	2.3	4664.6510730199
2	41	2.4	4664.6946764424
2	42	2.5	4664.7400822594
2	43	2.6	4664.7868404219
2	44	2.7	4664.8360265608
2	45	2.8	4664.8876204195
2	46	2.9	4664.9417062184
2	47	3	4664.9972613923
2	48	3.1	4665.0543544935
2	63	3.2	4665.1128699043
2	64	3.3	4665.1726709225
2	65	3.4	4665.2339812278
2	66	3.5	4665.2968264743
2	67	3.6	4665.3612820534
2	68	3.7	4665.4280745836
2	69	3.8	4665.4964296374
2	70	3.9	4665.5667801475
2	71	4	4665.6394135112
2	72	4.1	4665.7139901099
2	81	4.2	4665.7909138993
2	82	4.3	4665.8695776632
2	83	4.4	4665.9499822847
2	84	4.5	4666.0320460918
2	85	4.6	4666.1160771981
2	86	4.7	4666.202549888
2	87	4.8	4666.2906958387
2	88	4.9	4666.3811968995
2	89	5	4666.4737575486
2	90	5.1	4666.5682835214
2	99	5.2	4666.66519844
2	100	5.3	4666.7644277081
2	101	5.4	4666.8656528019
2	102	5.5	4666.9691951904
2	103	5.6	4667.0748557079
2	104	5.7	4667.182569502
2	105	5.8	4667.2920167122
2	106	5.9	4667.4027522472
2	107	6	4667.5159350435
2	108	6.1	4667.6315859033
2	117	6.2	4667.7493017213
2	118	6.3	4667.8691346846
2	119	6.4	4667.9906134261
2	120	6.5	4668.1139509472
2	121	6.6	4668.2386361572
2	122	6.7	4668.365672863
2	123	6.8	4668.5746764835
2	124	6.9	4669.4004392759
2	125	7	4670.2399494578
2	126	7.1	4671.0870261883
2	141	7.2	4671.9315322344
2	142	7.3	4672.777016131
2	143	7.4	4673.6196027314
2	144	7.5	4674.466167189
2	145	7.6	4675.311236861
2	146	7.7	4676.1553729444
2	147	7.8	4676.9991803208
2	148	7.9	4677.841253145
2	149	8	4678.6856112203
2	150	8.1	4679.5321138627
2	165	8.2	4680.3777037086
2	166	8.3	4681.2231977097
2	167	8.4	4682.0655670343
2	168	8.5	4682.9132946282
2	169	8.6	4683.7612357839
2	170	8.7	4684.6069511016
2	171	8.8	4685.454170955
2	172	8.9	4686.3005273295
2	173	9	4687.1482220322
2	174	9.1	4687.9924419965
2	183	9.2	4688.8410951791
2	184	9.3	4689.7543817146
2	185	9.4	4690.7348895996
2	186	9.5	4691.7128406193
2	187	9.6	4692.6908157402
2	188	9.7	4693.6730496533
2	189	9.8	4694.6499286509
2	190	9.9	4695.6299682123
2	191	10	4696.6064909961
2	192	10.1	4697.5864365867
2	213	10.2	4698.5644524335
2	214	10.3	4699.5449518454
2	215	10.4	4700.5239721523
2	216	10.5	4701.5053522717
2	217	10.6	4702.4826140039
2	218	10.7	4703.4564274764
2	219	10.8	4704.433810849
2	220	10.9	4705.4153494728
2	221	11	4706.3952197733
2	222	11.1	4707.3696210582
2	223	11.2	4708.3434258345
2	224	11.3	4709.3180805518
2	225	11.4	4710.291513371
2	226	11.5	4711.2727153959
2	227	11.6	4712.2542765427
2	228	11.7	4713.2296199381
2	229	11.8	4714.2108625377
2	230	11.9	4715.1919721853
2	231	12	4716.1705661202
2	232	12.1	4717.1518179594
2	259	12.2	4718.1279959571
2	260	12.3	4719.1032060403
2	261	12.4	4720.0840267714
2	262	12.5	4721.062259188
2	263	12.6	4722.0402290461
2	264	12.7	4723.0180002276
2	265	12.8	4723.9991092569
2	266	12.9	4724.9734596362
2	267	13	4725.9515691622
2	268	13.1	4726.9325538284
2	269	13.2	4727.9098855353
2	270	13.3	4728.8848475503
2	271	13.4	4729.8631946995
2	272	13.5	4730.8423755811
2	273	13.6	4731.8192349701
2	274	13.7	4732.7960457434
2	275	13.8	4733.7782080582
2	276	13.9	4734.754981908
2	277	14	4735.7300220905
2	278	14.1	4736.710263059
2	299	14.2	4737.6881476977
2	300	14.3	4738.6629889527
2	301	14.4	4739.6363880989
2	302	14.5	4740.6178751178
2	303	14.6	4741.5922284506
2	304	14.7	4742.5731090809
2	325	14.8	4743.5469027688
2	326	14.9	4744.5204630671
2	327	15	4745.4990850754
2	328	15.1	4746.4765172517
2	337	15.2	4747.4564802143
2	338	15.3	4748.430712696
2	339	15.4	4749.4108412646
2	340	15.5	4750.3846154233
2	341	15.6	4751.3759767835
2	342	15.7	4752.372321509
2	343	15.8	4753.3700828485
2	344	15.9	4754.3676819994
2	345	16	4755.3597925791
2	346	16.1	4756.3559319129
2	373	16.2	4757.3498656624
2	374	16.3	4758.3484581603
2	375	16.4	4759.3458753163
2	376	16.5	4760.3442343578
2	377	16.6	4761.3391151337
2	378	16.7	4762.3358396107
2	379	16.8	4763.3328206561
2	380	16.9	4764.3284968024
2	381	17	4765.3221172646
2	382	17.1	4766.3155531001
2	415	17.2	4767.308116618
2	416	17.3	4768.3047984979
2	417	17.4	4769.3009637282
2	418	17.5	4770.2971092635
2	419	17.6	4771.2876639822
2	434	17.7	4772.2862291112
2	435	17.8	4773.2782580251
2	436	17.9	4774.271301946
2	437	18	4775.2700593195
2	438	18.1	4776.2664594955
2	483	18.2	4777.2641118627
2	484	18.3	4778.2565987966
2	485	18.4	4779.249295637
2	530	18.5	4780.2419151839
2	531	18.6	4781.2390441033
2	532	18.7	4782.2330336131
2	533	18.8	4783.2240481521
2	534	18.9	4784.2157367572
2	535	19	4785.2064207371
2	536	19.1	4786.2019051851
2	581	19.2	4787.2006708337
2	582	19.3	4788.194814108
2	609	19.4	4789.1944681295
2	610	19.5	4790.1869877028
2	611	19.6	4791.1832718471
2	612	19.7	4792.1809803378
2	613	19.8	4793.1804632432
2	614	19.9	4794.1725395731
2	615	20	4795.1641016289
2	616	20.1	4796.1550572366
2	617	20.2	4797.1488129326
2	618	20.3	4798.1451932568
2	627	20.4	4799.1386553293
2	628	20.5	4800.1325671554
2	629	20.6	4801.1298150985
2	630	20.7	4802.1290068169
2	631	20.8	4803.1198891419
2	632	20.9	4804.1123793084
2	633	21	4805.1033800315
2	634	21.1	4806.1001955053
2	635	21.2	4807.0933610547
2	636	21.3	4808.0920417232
2	637	21.4	4809.0886403284
2	638	21.5	4810.0828338264
2	639	21.6	4811.0784891983
2	640	21.7	4812.0733951426
2	641	21.8	4813.0677474558
2	642	21.9	4814.063198132
2	643	22	4815.0550642419
2	644	22.1	4816.0503768727
2	645	22.2	4817.0418682465
2	646	22.3	4818.0336086079
2	647	22.4	4819.031455208
2	648	22.5	4820.0263957759
2	649	22.6	4821.024384501
2	650	22.7	4822.0168616533
2	651	22.8	4823.0151082865
2	652	22.9	4824.0090772933
2	653	23	4824.9997330132
2	654	23.1	4825.9969979815
2	655	23.2	4826.994840293
2	656	23.3	4827.9856180668
2	707	23.4	4828.976517297
2	708	23.5	4829.9696315483
2	709	23.6	4830.9610526875
2	710	23.7	4831.9552506767
2	711	23.8	4832.9483878052
2	712	23.9	4833.9441533256
2	713	24	4834.9375784059
2	714	24.1	4835.9344155125
2	715	24.2	4836.9280836094
2	716	24.3	4837.9264191771
2	717	24.4	4838.9237048396
2	718	24.5	4839.9233851859
2	719	24.6	4840.9174058537
2	720	24.7	4841.9119340516
2	721	24.8	4842.910297159
2	760	24.9	4843.9017151378
2	761	25	4844.8999944657
2	762	25.1	4845.8905208544
2	771	25.2	4846.882137589
2	772	25.3	4847.8777880315
2	773	25.4	4848.8723729012
2	774	25.5	4849.8627940932
2	775	25.6	4850.8573470697
2	776	25.7	4851.8498832279
2	777	25.8	4852.8447685953
2	778	25.9	4853.8369107684
2	779	26	4854.8276100617
2	780	26.1	4855.8219048691
2	781	26.2	4856.8130472835
2	782	26.3	4857.8095444752
2	783	26.4	4858.8021211098
2	784	26.5	4859.7925784612
2	785	26.6	4860.7898071235
2	794	26.7	4861.7885780038
2	795	26.8	4862.7829701547
2	816	26.9	4863.7744156048
2	817	27	4864.7720643733
2	818	27.1	4865.7661036736
2	819	27.2	4866.7584450198
2	820	27.3	4867.7540251043
2	821	27.4	4868.7483676207
2	822	27.5	4869.7447809538
2	823	27.6	4870.7353999203
2	824	27.7	4871.7276564605
2	825	27.8	4872.7255399056
2	858	27.9	4873.7183248721
2	909	28	4874.7093388656
2	924	28.1	4875.7043990772
2	925	28.2	4876.6978499858
2	926	28.3	4877.6942965147
2	927	28.4	4878.6899420024
2	928	28.5	4879.6894816543
2	929	28.6	4880.6862545812
2	930	28.7	4881.6782965153
2	931	28.8	4882.6777589311
2	932	28.9	4883.6713924454
2	933	29	4884.6637217273
2	934	29.1	4885.6551171499
2	935	29.2	4886.6544320169
2	936	29.3	4887.645307915
2	993	29.4	4888.6435993383
2	994	29.5	4889.6344781946
2	995	29.6	4890.6333333167
2	996	29.7	4891.6311737497
2	1011	29.8	4892.638420066
2	1012	29.9	4893.6453826287
2	1013	30	4894.647800202
2	1014	30.1	4895.6331294569
2	1015	30.2	4896.5888132402
2	1016	30.3	4897.5268230215
2	1017	30.4	4898.4358353983
2	1018	30.5	4899.3177230759
2	1019	30.6	4900.1791449408
2	1020	30.7	4901.0178247614
2	1021	30.8	4901.8284656952
2	1022	30.9	4902.6175197727
2	1023	31	4903.3844275996
2	1024	31.1	4904.1222470989
2	1039	31.2	4904.8445587312
2	1040	31.3	4905.5415698839
2	1041	31.4	4906.2147408075
2	1042	31.5	4906.8605834266
2	1043	31.6	4907.4836421525
2	1044	31.7	4908.0876511891
2	1045	31.8	4908.6740748733
2	1046	31.9	4909.2390607048
2	1047	32	4909.7808286637
2	1048	32.1	4910.297569735
2	1049	32.2	4910.7948524138
2	1050	32.3	4911.2710851737
2	1051	32.4	4911.7258970762
2	1052	32.5	4912.1674615371
2	1091	32.6	4912.5921335997
2	1092	32.7	4912.9966072408
2	1093	32.8	4913.3775900919
2	1114	32.9	4913.7439266828
2	1115	33	4914.0852523738
2	1148	33.1	4914.4113348961
2	1149	33.2	4914.7281604645
2	1150	33.3	4915.0201597939
2	1151	33.4	4915.2961660984
2	1152	33.5	4915.5596872491
2	1167	33.6	4915.8120427002
2	1168	33.7	4916.0833123212
2	1177	33.8	4916.3734961124
2	1178	33.9	4916.6825940737
2	1217	34	4917.010606205
2	1218	34.1	4917.3575325064
2	1219	34.2	4917.8062973341
2	1276	34.3	4918.328726955
2	1291	34.4	4918.876911486
2	1292	34.5	4919.427465393
2	1293	34.6	4919.8777425712
2	1294	34.7	4920.0505600377
2	1295	34.8	4919.9804222402
2	1296	34.9	4919.8350060793
2	1297	35	4919.5163206289
2	1298	35.1	4919.0122593876
2	1299	35.2	4918.4928504807
2	1300	35.3	4917.95687467
2	1301	35.4	4917.4079491604
2	1302	35.5	4916.8458983678
2	1303	35.6	4916.2652143329
2	1304	35.7	4915.6747645014
2	1305	35.8	4915.0708415701
2	1306	35.9	4914.4534477148
2	1307	36	4913.8197797203
2	1308	36.1	4913.1675877823
2	1309	36.2	4912.5052732883
2	1310	36.3	4911.8240957851
2	1311	36.4	4911.1309377804
2	1312	36.5	4910.4238694587
2	1313	36.6	4909.7005674888
2	1314	36.7	4908.9653067178
2	1315	36.8	4908.2171656479
2	1316	36.9	4907.4525447942
2	1317	37	4906.6753589822
2	1318	37.1	4905.8883279188
2	1319	37.2	4905.0869098655
2	1320	37.3	4904.2677223126
2	1321	37.4	4903.4350247135
2	1322	37.5	4902.591092323
2	1323	37.6	4901.7327949723
2	1324	37.7	4900.8627947401
2	1325	37.8	4899.9763658217
2	1326	37.9	4899.0711156752
2	1327	38	4898.1505599016
2	1328	38.1	4897.2128092138
2	1329	38.2	4896.261519366
2	1330	38.3	4895.2988973707
2	1331	38.4	4894.3199840768
2	1332	38.5	4893.3319818639
2	1333	38.6	4892.3370641927
2	1366	38.7	4891.3435232991
2	1367	38.8	4890.3491590302
2	1424	38.9	4889.3507657237
2	1445	39	4888.3601860913
2	1446	39.1	4887.3608376589
2	1479	39.2	4886.3699243789
2	1480	39.3	4885.3789388411
2	1481	39.4	4884.3860690499
2	1482	39.5	4883.3876006497
2	1483	39.6	4882.3904418911
2	1484	39.7	4881.3947033635
2	1485	39.8	4880.3979475618
2	1486	39.9	4879.3998542551
2	1487	40	4878.4033998072
2	1488	40.1	4877.4080449789
2	1489	40.2	4876.4091242944
2	1490	40.3	4875.4176231823
2	1491	40.4	4874.4245896718
2	1492	40.5	4873.425796343
2	1531	40.6	4872.4333712339
2	1532	40.7	4871.4403116006
2	1553	40.8	4870.4484610234
2	1562	40.9	4869.4580195357
2	1563	41	4868.4661800762
2	1564	41.1	4867.4702525497
2	1603	41.2	4866.4755556443
2	1604	41.3	4865.4851255379
2	1605	41.4	4864.488340405
2	1606	41.5	4863.4933368312
2	1607	41.6	4862.4990051731
2	1608	41.7	4861.5011485119
2	1609	41.8	4860.5014446117
2	1610	41.9	4859.5066152867
2	1611	42	4858.5156604805
2	1644	42.1	4857.5235805366
2	1645	42.2	4856.5318758519
2	1690	42.3	4855.5344927978
2	1691	42.4	4854.5356174461
2	1692	42.5	4853.5375375601
2	1693	42.6	4852.5386308543
2	1720	42.7	4851.5445140131
2	1721	42.8	4850.5473800244
2	1722	42.9	4849.5487947511
2	1723	43	4848.5570452014
2	1724	43.1	4847.5574917546
2	1725	43.2	4846.5645008924
2	1726	43.3	4845.5713292581
2	1727	43.4	4844.5782744296
2	1772	43.5	4843.5837380467
2	1799	43.6	4842.5923829022
2	1800	43.7	4841.5993060743
2	1801	43.8	4840.5998427146
2	1802	43.9	4839.6029710024
2	1803	44	4838.6059137408
2	1804	44.1	4837.6072466256
2	1805	44.2	4836.6081210578
2	1832	44.3	4835.6174398712
2	1833	44.4	4834.61806812
2	1834	44.5	4833.6227438931
2	1835	44.6	4832.6310070041
2	1836	44.7	4831.6367589343
2	1837	44.8	4830.6373960885
2	1838	44.9	4829.63955366
2	1839	45	4828.6405593612
2	1840	45.1	4827.6489188411
2	1841	45.2	4826.6495151085
2	1842	45.3	4825.6531713519
2	1843	45.4	4824.6584799429
2	1844	45.5	4823.6659660943
2	1845	45.6	4822.6713167893
2	1846	45.7	4821.679196494
2	1885	45.8	4820.6823186599
2	1886	45.9	4819.6915058848
2	1887	46	4818.699322239
2	1888	46.1	4817.7014111506
2	1985	46.2	4816.7040896258
2	1986	46.3	4815.7119494839
2	1987	46.4	4814.7207088856
2	1988	46.5	4813.7212820765
2	1989	46.6	4812.728838992
2	1990	46.7	4811.7336852889
2	1991	46.8	4810.7348819415
2	1992	46.9	4809.7355013377
2	1993	47	4808.7385690636
2	1994	47.1	4807.7418683416
2	1995	47.2	4806.749450756
2	1996	47.3	4805.750696458
2	1997	47.4	4804.7545758221
2	1998	47.5	4803.7555530738
2	1999	47.6	4802.7629924846
2	2000	47.7	4801.7668925851
2	2001	47.8	4800.7710236029
2	2022	47.9	4799.7742917708
2	2031	48	4798.7801018136
2	2032	48.1	4797.7882471216
2	2033	48.2	4796.7937218812
2	2034	48.3	4795.79430715
2	2035	48.4	4794.7949233676
2	2036	48.5	4793.7996002813
2	2037	48.6	4792.8006564525
2	2038	48.7	4791.807160027
2	2039	48.8	4790.8125882363
2	2040	48.9	4789.8151992118
2	2041	49	4788.8164570221
2	2042	49.1	4787.820943339
2	2043	49.2	4786.8277262021
2	2044	49.3	4785.8367789225
2	2045	49.4	4784.8432503227
2	2078	49.5	4783.8514651614
2	2111	49.6	4782.8540653712
2	2112	49.7	4781.8628393969
2	2113	49.8	4780.8638673596
2	2114	49.9	4779.8645177062
2	2115	50	4778.8686597641
2	2116	50.1	4777.8743943185
2	2117	50.2	4776.8807256623
2	2118	50.3	4775.8892358801
2	2119	50.4	4774.8962660798
2	2164	50.5	4773.8999205805
2	2165	50.6	4772.9067392242
2	2166	50.7	4771.9118448318
2	2167	50.8	4770.9172710005
2	2168	50.9	4769.9244947966
2	2213	51	4768.9255917698
2	2214	51.1	4767.9275444033
2	2215	51.2	4766.9360845306
2	2216	51.3	4765.9365600114
2	2217	51.4	4764.940610992
2	2218	51.5	4763.9452043014
2	2263	51.6	4762.9526361139
2	2264	51.7	4761.9601133349
2	2303	51.8	4760.9620951355
2	2368	51.9	4759.9667956221
2	2369	52	4758.9715871526
2	2370	52.1	4757.979649804
2	2371	52.2	4756.9851481405
2	2372	52.3	4755.9933649935
2	2373	52.4	4754.9988737384
2	2374	52.5	4754.0017218037
2	2375	52.6	4753.007909128
2	2376	52.7	4752.0267496455
2	2377	52.8	4751.0470874713
2	2378	52.9	4750.0660961622
2	2379	53	4749.0888160422
2	2380	53.1	4748.1114356145
2	2381	53.2	4747.1367773567
2	2382	53.3	4746.1577567745
2	2383	53.4	4745.1757472319
2	2384	53.5	4744.2003993371
2	2385	53.6	4743.2241222416
2	2386	53.7	4742.2427045218
2	2425	53.8	4741.268687181
2	2426	53.9	4740.2919414296
2	2427	54	4739.3142240243
2	2428	54.1	4738.3334256382
2	2429	54.2	4737.3517408437
2	2430	54.3	4736.3779852835
2	2431	54.4	4735.4008007981
2	2432	54.5	4734.4242032332
2	2433	54.6	4733.4446701719
2	2434	54.7	4732.4653976414
2	2435	54.8	4731.4844062191
2	2436	54.9	4730.5022137033
2	2437	55	4729.5268547298
2	2446	55.1	4728.5449832217
2	2447	55.2	4727.5656766817
2	2448	55.3	4726.5894323819
2	2449	55.4	4725.6127821381
2	2450	55.5	4724.6358745249
2	2451	55.6	4723.6575918522
2	2484	55.7	4722.6825088291
2	2529	55.8	4721.7074196963
2	2530	55.9	4720.7254051726
2	2531	56	4719.7489213279
2	2532	56.1	4718.7717818124
2	2533	56.2	4717.7964149188
2	2534	56.3	4716.8187596258
2	2535	56.4	4715.8408304111
2	2536	56.5	4714.8653099171
2	2575	56.6	4713.8850978433
2	2658	56.7	4712.9105481201
2	2659	56.8	4711.9358665168
2	2660	56.9	4710.9585443727
2	2661	57	4709.9831202467
2	2662	57.1	4709.0064375885
2	2663	57.2	4708.0240858338
2	2684	57.3	4707.0480376745
2	2685	57.4	4706.0746036058
2	2712	57.5	4705.0931875926
2	2713	57.6	4704.1136077361
2	2714	57.7	4703.1320669352
2	2715	57.8	4702.1541885616
2	2716	57.9	4701.1756695471
2	2717	58	4700.1966371982
2	2718	58.1	4699.218143076
2	2719	58.2	4698.2361394632
2	2720	58.3	4697.2623584046
2	2721	58.4	4696.2845401412
2	2722	58.5	4695.3049110904
2	2723	58.6	4694.3270681863
2	2724	58.7	4693.3459604138
2	2725	58.8	4692.365930249
2	2726	58.9	4691.4344016638
2	2727	59	4690.5916458177
2	2728	59.1	4689.7459315537
2	2729	59.2	4688.8969249362
2	2730	59.3	4688.0484933843
2	2731	59.4	4687.2011106286
2	2732	59.5	4686.3538296522
2	2733	59.6	4685.5114398846
2	2734	59.7	4684.6700826934
2	2735	59.8	4683.8277616982
2	2736	59.9	4682.9838540579
2	2737	60	4682.1404960462
2	2738	60.1	4681.2959162486
2	2739	60.2	4680.4486422729
2	2740	60.3	4679.6051723561
2	2741	60.4	4678.7617838549
2	2742	60.5	4677.9177222547
2	2743	60.6	4677.0695310736
2	2744	60.7	4676.2221300039
2	2745	60.8	4675.3771420321
2	2798	60.9	4674.5341267604
2	2799	61	4673.6910367018
2	2800	61.1	4672.8491544001
2	2801	61.2	4672.0064280991
2	2896	61.3	4671.5896846803
2	2897	61.4	4671.4563264126
3	2	0.1	1806.3256636633
3	11	0.2	1806.3256636633
3	12	0.3	1806.3508306212
3	13	0.4	1806.4003615623
3	14	0.5	1806.4730729954
3	15	0.6	1806.5674997262
3	16	0.7	1806.684177763
3	17	0.8	1806.8206176158
3	18	0.9	1806.9785123227
3	19	1	1807.1544990242
3	20	1.1	1807.35208674
3	21	1.2	1807.5685842715
3	22	1.3	1807.8031314288
3	23	1.4	1808.0585822968
3	24	1.5	1808.3342484749
3	25	1.6	1808.6319420367
3	26	1.7	1808.9439744164
3	27	1.8	1809.2811500554
3	28	1.9	1809.6317343652
3	29	2	1810.0046679471
3	30	2.1	1810.3985174043
3	39	2.2	1810.812063623
3	40	2.3	1811.2412431322
3	41	2.4	1811.6894565649
3	42	2.5	1812.1561973825
3	43	2.6	1812.6368393903
3	44	2.7	1813.1424393379
3	45	2.8	1813.6727890026
3	46	2.9	1814.2287541125
3	47	3	1814.7998233946
3	48	3.1	1815.3867015208
3	63	3.2	1815.9882000181
3	64	3.3	1816.6029136832
3	65	3.4	1817.2331417892
3	66	3.5	1817.8791480436
3	67	3.6	1818.541707419
3	68	3.7	1819.2282890562
3	69	3.8	1819.9309323708
3	70	3.9	1820.6540876147
3	71	4	1821.4007090349
3	72	4.1	1822.167305586
3	81	4.2	1822.9580296552
3	82	4.3	1823.766639476
3	83	4.4	1824.5931441249
3	84	4.5	1825.4367040691
3	85	4.6	1826.3004865076
3	86	4.7	1827.189366759
3	87	4.8	1828.0954469898
3	88	4.9	1829.0257361463
3	89	5	1829.9771964647
3	90	5.1	1830.9488589697
3	99	5.2	1831.9450782071
3	100	5.3	1832.9650873795
3	101	5.4	1834.0056122766
3	102	5.5	1835.0699573837
3	103	5.6	1836.1560754109
3	104	5.7	1837.2632997211
3	105	5.8	1838.3883423656
3	106	5.9	1839.5266281105
3	107	6	1840.690070031
3	108	6.1	1841.8788819608
3	117	6.2	1843.0889202522
3	118	6.3	1844.320721353
3	119	6.4	1845.5694399304
3	120	6.5	1846.8372654933
3	121	6.6	1848.1189443795
3	122	6.7	1849.4247950376
3	123	6.8	1850.7225734541
3	124	6.9	1851.7916520042
3	125	7	1852.8785286913
3	126	7.1	1853.9752014541
3	141	7.2	1855.0685460656
3	142	7.3	1856.1631566569
3	143	7.4	1857.2540162469
3	144	7.5	1858.3500257926
3	145	7.6	1859.4441001055
3	146	7.7	1860.5369657426
3	147	7.8	1861.6294058174
3	148	7.9	1862.719600244
3	149	8	1863.8127532843
3	150	8.1	1864.9086828006
3	165	8.2	1866.0034305597
3	166	8.3	1867.0980542328
3	167	8.4	1868.1886325254
3	168	8.5	1869.2861479323
3	169	8.6	1870.3839398281
3	170	8.7	1871.4788500299
3	171	8.8	1872.5757080876
3	172	8.9	1873.6714482374
3	173	9	1874.7689210615
3	174	9.1	1875.8618952954
3	183	9.2	1876.960609021
3	184	9.3	1877.994053448
3	185	9.4	1878.9739231891
3	186	9.5	1879.9512377292
3	187	9.6	1880.9285763548
3	188	9.7	1881.9101710007
3	189	9.8	1882.8864142164
3	190	9.9	1883.8658159388
3	191	10	1884.8417031725
3	192	10.1	1885.8210109853
3	213	10.2	1886.7983903103
3	214	10.3	1887.7782515839
3	215	10.4	1888.7566347151
3	216	10.5	1889.7373761231
3	217	10.6	1890.7140018242
3	218	10.7	1891.68718151
3	219	10.8	1892.6639287723
3	220	10.9	1893.6448285815
3	221	11	1894.6240611532
3	222	11.1	1895.5978282687
3	223	11.2	1896.5709992638
3	224	11.3	1897.5450196468
3	225	11.4	1898.5178189269
3	226	11.5	1899.4983823563
3	227	11.6	1900.4793046738
3	228	11.7	1901.4540132866
3	229	11.8	1902.4346172643
3	230	11.9	1903.4150883766
3	231	12	1904.3930454133
3	232	12.1	1905.3736586246
3	259	12.2	1906.3492012965
3	260	12.3	1907.323776684
3	261	12.4	1908.3039590677
3	262	12.5	1909.2815548215
3	263	12.6	1910.2588881876
3	264	12.7	1911.2360230065
3	265	12.8	1912.2164935008
3	266	12.9	1913.1902097438
3	267	13	1914.167682687
3	268	13.1	1915.1480288991
3	269	13.2	1916.1247245294
3	270	13.3	1917.0990520101
3	271	13.4	1918.0767624218
3	272	13.5	1919.0553060233
3	273	13.6	1920.0315296431
3	274	13.7	1921.0077046788
3	275	13.8	1921.9892277731
3	276	13.9	1922.9653659094
3	277	14	1923.9397715066
3	278	14.1	1924.9193745051
3	299	14.2	1925.8966227073
3	300	14.3	1926.8708295066
3	301	14.4	1927.8435951356
3	302	14.5	1928.8244433735
3	303	14.6	1929.7981625681
3	304	14.7	1930.778404812
3	325	14.8	1931.751564726
3	326	14.9	1932.7244914022
3	327	15	1933.7024764942
3	328	15.1	1934.6792725285
3	337	15.2	1935.6585977019
3	338	15.3	1936.6321961242
3	339	15.4	1937.6116867958
3	340	15.5	1938.5848271933
3	341	15.6	1939.5523374027
3	342	15.7	1940.513316072
3	343	15.8	1941.4756610715
3	344	15.9	1942.4378496394
3	345	16	1943.3947444573
3	346	16.1	1944.3555250254
3	373	16.2	1945.3141782983
3	374	16.3	1946.2773249534
3	375	16.4	1947.2393379864
3	376	16.5	1948.202259472
3	377	16.6	1949.1618261557
3	378	16.7	1950.123171097
3	379	16.8	1951.0847634995
3	380	16.9	1952.0450973214
3	381	17	1953.0034484273
3	382	17.1	1953.96162146
3	415	17.2	1954.9189531386
3	416	17.3	1955.8802569948
3	417	17.4	1956.8410625402
3	418	17.5	1957.8018490897
3	419	17.6	1958.7572432732
3	434	17.7	1959.720363531
3	435	17.8	1960.6771795819
3	436	17.9	1961.6349746113
3	437	18	1962.5982802898
3	438	18.1	1963.5593124413
3	483	18.2	1964.5215523365
3	484	18.3	1965.4788101496
3	485	18.4	1966.4362704185
3	530	18.5	1967.3936561373
3	531	18.6	1968.355391165
3	532	18.7	1969.3140982188
3	533	18.8	1970.2699359009
3	534	18.9	1971.2264237225
3	535	19	1972.1819425789
3	536	19.1	1973.1420915069
3	581	19.2	1974.1054051667
3	582	19.3	1975.0642605271
3	609	19.4	1976.0284310263
3	610	19.5	1976.9857203203
3	611	19.6	1977.9466405587
3	612	19.7	1978.9089345853
3	613	19.8	1979.8729400423
3	614	19.9	1980.8298018261
3	615	20	1981.7861675904
3	616	20.1	1982.741948433
3	617	20.2	1983.7004299725
3	618	20.3	1984.6614429769
3	627	20.4	1985.6196413153
3	628	20.5	1986.5782734429
3	629	20.6	1987.5401232693
3	630	20.7	1988.5038478753
3	631	20.8	1989.4595580363
3	632	20.9	1990.4168189674
3	633	21	1991.3726433239
3	634	21.1	1992.3340760319
3	635	21.2	1993.2919883725
3	636	21.3	1994.2552200686
3	637	21.4	1995.216443606
3	638	21.5	1996.1753474073
3	639	21.6	1997.1356611921
3	640	21.7	1998.095252151
3	641	21.8	1999.0543091303
3	642	21.9	2000.0144254853
3	643	22	2000.971084511
3	644	22.1	2001.9310677206
3	645	22.2	2002.8873653119
3	646	22.3	2003.8439030527
3	647	22.4	2004.8063302863
3	648	22.5	2005.7659546397
3	649	22.6	2006.7285189535
3	650	22.7	2007.6857673323
3	651	22.8	2008.6485803995
3	652	22.9	2009.6072676781
3	653	23	2010.5627592777
3	654	23.1	2011.524625525
3	655	23.2	2012.4870486223
3	656	23.3	2013.4426579434
3	707	23.4	2014.3983844095
3	708	23.5	2015.356247273
3	709	23.6	2016.3124771226
3	710	23.7	2017.2713852557
3	711	23.8	2018.2292701843
3	712	23.9	2019.1896902079
3	713	24	2020.1478528671
3	714	24.1	2021.1093064401
3	715	24.2	2022.0677034898
3	716	24.3	2023.0306023348
3	717	24.4	2023.9924885417
3	718	24.5	2024.9566844313
3	719	24.6	2025.9154215372
3	720	24.7	2026.874648158
3	721	24.8	2027.8375735652
3	760	24.9	2028.7938003665
3	761	25	2029.756644968
3	762	25.1	2030.712011827
3	771	25.2	2031.6684303293
3	772	25.3	2032.6287393597
3	773	25.4	2033.5880206408
3	774	25.5	2034.5432860371
3	775	25.6	2035.5025365569
3	776	25.7	2036.4598418472
3	777	25.8	2037.4194129594
3	778	25.9	2038.3763382493
3	779	26	2039.3318718756
3	780	26.1	2040.2908733903
3	781	26.2	2041.2468344086
3	782	26.3	2042.2079601322
3	783	26.4	2043.165304462
3	784	26.5	2044.1206047343
3	785	26.6	2045.0824359644
3	794	26.7	2046.0457546702
3	795	26.8	2047.0048500731
3	816	26.9	2047.9611033707
3	817	27	2048.923339795
3	818	27.1	2049.882094872
3	819	27.2	2050.8392122652
3	820	27.3	2051.799453435
3	821	27.4	2052.7585009652
3	822	27.5	2053.7195458068
3	823	27.6	2054.6750019575
3	824	27.7	2055.632037555
3	825	27.8	2056.5945003257
3	858	27.9	2057.5520455926
3	909	28	2058.5078827485
3	924	28.1	2059.4676224987
3	925	28.2	2060.4258100695
3	926	28.3	2061.3868869286
3	927	28.4	2062.3471911802
3	928	28.5	2063.3112513694
3	929	28.6	2064.2726430408
3	930	28.7	2065.2294716496
3	931	28.8	2066.1934573443
3	932	28.9	2067.1518210391
3	933	29	2068.1089267961
3	934	29.1	2069.065131842
3	935	29.2	2070.0289752253
3	936	29.3	2070.9846791876
3	993	29.4	2071.9475354551
3	994	29.5	2072.9032422706
3	995	29.6	2073.866642228
3	996	29.7	2074.8217711204
3	1011	29.8	2075.7717351081
3	1012	29.9	2076.7214314792
3	1013	30	2077.6668413355
3	1014	30.1	2078.5961346901
3	1015	30.2	2079.4974685178
3	1016	30.3	2080.382133468
3	1017	30.4	2081.2394501028
3	1018	30.5	2082.0711846262
3	1019	30.6	2082.8836172324
3	1020	30.7	2083.6746011395
3	1021	30.8	2084.4391407377
3	1022	30.9	2085.1833211292
3	1023	31	2085.9066147323
3	1024	31.1	2086.6024742677
3	1039	31.2	2087.283707872
3	1040	31.3	2087.9410798409
3	1041	31.4	2088.5759673799
3	1042	31.5	2089.1850807814
3	1043	31.6	2089.7727060148
3	1044	31.7	2090.3423649192
3	1045	31.8	2090.8954385541
3	1046	31.9	2091.4282935121
3	1047	32	2091.9392510031
3	1048	32.1	2092.4266048913
3	1049	32.2	2092.8956069902
3	1050	32.3	2093.3447562841
3	1051	32.4	2093.7737029295
3	1052	32.5	2094.1901555184
3	1091	32.6	2094.5906763835
3	1092	32.7	2094.972147516
3	1093	32.8	2095.3314637851
3	1114	32.9	2095.6769667302
3	1115	33	2095.998881151
3	1148	33.1	2096.3064192856
3	1149	33.2	2096.6052269114
3	1150	33.3	2096.8806201721
3	1151	33.4	2097.1409299348
3	1152	33.5	2097.3894645773
3	1167	33.6	2097.6274685161
3	1168	33.7	2097.8833109717
3	1177	33.8	2098.1569919442
3	1178	33.9	2098.4485114336
3	1217	34	2098.7578694399
3	1218	34.1	2099.0850659631
3	1219	34.2	2099.2637920636
3	1276	34.3	2099.3526406386
3	1291	34.4	2099.4458693003
3	1292	34.5	2099.2885960226
3	1293	34.6	2098.9784097591
3	1294	34.7	2098.393489103
3	1295	34.8	2097.7785219645
3	1296	34.9	2097.1395721666
3	1297	35	2096.5801840219
3	1298	35.1	2096.1047998043
3	1299	35.2	2095.6149410795
3	1300	35.3	2095.1094579744
3	1301	35.4	2094.5917619039
3	1302	35.5	2094.0616872732
3	1303	35.6	2093.5140394816
3	1304	35.7	2092.9571814886
3	1305	35.8	2092.3876169065
3	1306	35.9	2091.8053477875
3	1307	36	2091.2077303968
3	1308	36.1	2090.5926429257
3	1309	36.2	2089.9680087904
3	1310	36.3	2089.3255847992
3	1311	36.4	2088.6718619005
3	1312	36.5	2088.0050200699
3	1313	36.6	2087.3228681548
3	1314	36.7	2086.629437798
3	1315	36.8	2085.9238599276
3	1316	36.9	2085.2027398403
3	1317	37	2084.4697696396
3	1318	37.1	2083.7275143029
3	1319	37.2	2082.9716904803
3	1320	37.3	2082.1991080993
3	1321	37.4	2081.413784285
3	1322	37.5	2080.6178648484
3	1323	37.6	2079.8083977021
3	1324	37.7	2078.9878934739
3	1325	37.8	2078.1518952194
3	1326	37.9	2077.2981465131
3	1327	38	2076.4299629466
3	1328	38.1	2075.5455627179
3	1329	38.2	2074.6483935983
3	1330	38.3	2073.7405370391
3	1331	38.4	2072.8173160251
3	1332	38.5	2071.8804323122
3	1333	38.6	2070.9208375806
3	1366	38.7	2069.9625707466
3	1367	38.8	2069.0035097697
3	1424	38.9	2068.0405627998
3	1445	39	2067.085152092
3	1446	39.1	2066.1212839064
3	1479	39.2	2065.1655513967
3	1480	39.3	2064.2097491946
3	1481	39.4	2063.2521296364
3	1482	39.5	2062.2891102388
3	1483	39.6	2061.3273539862
3	1484	39.7	2060.3669675415
3	1485	39.8	2059.4055999393
3	1486	39.9	2058.4429423182
3	1487	40	2057.4818653708
3	1488	40.1	2056.5218490027
3	1489	40.2	2055.5583933785
3	1490	40.3	2054.6020939068
3	1491	40.4	2053.6443164419
3	1492	40.5	2052.6809836518
3	1531	40.6	2051.723792988
3	1532	40.7	2050.7659903278
3	1553	40.8	2049.8093537982
3	1562	40.9	2048.8540763305
3	1563	41	2047.8974505239
3	1564	41.1	2046.9368817903
3	1603	41.2	2045.9774999868
3	1604	41.3	2045.0222334964
3	1605	41.4	2044.0608376044
3	1606	41.5	2043.1011600202
3	1607	41.6	2042.1421304964
3	1608	41.7	2041.179701119
3	1609	41.8	2040.2154900859
3	1610	41.9	2039.255980564
3	1611	42	2038.3002080024
3	1644	42.1	2037.3433502493
3	1645	42.2	2036.3868544325
3	1690	42.3	2035.4248818475
3	1691	42.4	2034.4614699466
3	1692	42.5	2033.4988252696
3	1693	42.6	2032.5353831278
3	1720	42.7	2031.5765607941
3	1721	42.8	2030.6148284319
3	1722	42.9	2029.6516963106
3	1723	43	2028.6951572217
3	1724	43.1	2027.7310913003
3	1725	43.2	2026.7733549696
3	1726	43.3	2025.8154442847
3	1727	43.4	2024.8576462588
3	1772	43.5	2023.8984192786
3	1799	43.6	2022.9422605922
3	1800	43.7	2021.9844413478
3	1801	43.8	2021.0204623151
3	1802	43.9	2020.0589829177
3	1803	44	2019.0973245585
3	1804	44.1	2018.134113501
3	1805	44.2	2017.1704602675
3	1832	44.3	2016.2149516111
3	1833	44.4	2015.2510609345
3	1834	44.5	2014.2910740814
3	1835	44.6	2013.3345472037
3	1836	44.7	2012.3755983004
3	1837	44.8	2011.4117162132
3	1838	44.9	2010.4493005631
3	1839	45	2009.4857739381
3	1840	45.1	2008.5293400078
3	1841	45.2	2007.5654184853
3	1842	45.3	2006.6044482993
3	1843	45.4	2005.6450717969
3	1844	45.5	2004.6877955442
3	1845	45.6	2003.7284596511
3	1846	45.7	2002.7715629792
3	1885	45.8	2001.8100776772
3	1886	45.9	2000.8544421042
3	1887	46	1999.897484331
3	1888	46.1	1998.9350024588
3	1985	46.2	1997.9730892186
3	1986	46.3	1997.0161734048
3	1987	46.4	1996.0601251977
3	1988	46.5	1995.0961814179
3	1989	46.6	1994.138973417
3	1990	46.7	1993.1791510335
3	1991	46.8	1992.2158085805
3	1992	46.9	1991.2519093657
3	1993	47	1990.2903715564
3	1994	47.1	1989.3290570785
3	1995	47.2	1988.3718736711
3	1996	47.3	1987.4085785261
3	1997	47.4	1986.4478235393
3	1998	47.5	1985.4842694748
3	1999	47.6	1984.526948141
3	2000	47.7	1983.5662131543
3	2001	47.8	1982.6057008866
3	2022	47.9	1981.6443564031
3	2031	48	1980.6854635493
3	2032	48.1	1979.7288230509
3	2033	48.2	1978.7696068176
3	2034	48.3	1977.805674687
3	2035	48.4	1976.8417724063
3	2036	48.5	1975.8817866534
3	2037	48.6	1974.9183087065
3	2038	48.7	1973.9600847617
3	2039	48.8	1973.0008236308
3	2040	48.9	1972.0388452874
3	2041	49	1971.0755618208
3	2042	49.1	1970.1153922379
3	2043	49.2	1969.157437666
3	2044	49.3	1968.2016723639
3	2045	49.4	1967.243417387
3	2078	49.5	1966.2868439508
3	2111	49.6	1965.3248552239
3	2112	49.7	1964.3688211216
3	2113	49.8	1963.4053159678
3	2114	49.9	1962.4414466044
3	2115	50	1961.4809449849
3	2116	50.1	1960.5219793228
3	2117	50.2	1959.563589262
3	2118	50.3	1958.6073007179
3	2119	50.4	1957.6495847013
3	2164	50.5	1956.6886128345
3	2165	50.6	1955.7306927729
3	2166	50.7	1954.7711204937
3	2167	50.8	1953.8118573947
3	2168	50.9	1952.8543281012
3	2213	51	1951.8908895078
3	2214	51.1	1950.9282761958
[...]
117	1020	30.7	-0.17893241085112
117	1021	30.8	-0.2007964507211
117	1022	30.9	0.096060078404845
117	1023	31	-0.13974696947262
117	1024	31.1	1.1948968635639
117	1039	31.2	-1.2197753612418
117	1040	31.3	0.14825501153246
117	1041	31.4	0.71618011514656
117	1042	31.5	-0.71103085463401
117	1043	31.6	0.48364440915175
117	1044	31.7	0.47397938340437
117	1045	31.8	-0.44479574176949
117	1046	31.9	0.03598927790299
117	1047	32	0.44583580568433
117	1048	32.1	0.10357173355296
117	1049	32.2	-1.0683670284459
117	1050	32.3	0.51461460490245
117	1051	32.4	-0.32991149551234
117	1052	32.5	0.022465428989378
117	1091	32.6	0.67376623614691
117	1092	32.7	-0.28880352594424
117	1093	32.8	-0.44733598956372
117	1114	32.9	0.21867361781188
117	1115	33	-0.54259481118061
117	1148	33.1	-0.021976601658382
117	1149	33.2	0.82959336373023
117	1150	33.3	0.36311518000439
117	1151	33.4	-0.59832373631652
117	1152	33.5	-0.079355225735345
117	1167	33.6	-0.41580804446713
117	1168	33.7	0.35639363091905
117	1177	33.8	-0.1811488233041
117	1178	33.9	-0.031654898705895
117	1217	34	0.70296611897648
117	1218	34.1	0.080003707297145
117	1219	34.2	0.20037083807401
117	1276	34.3	-0.85198552664369
117	1291	34.4	0.67810576271731
117	1292	34.5	-0.097572538675736
117	1293	34.6	-0.44374978982378
117	1294	34.7	0.45519105375279
117	1295	34.8	-0.61252182000317
117	1296	34.9	-0.27478061760775
117	1297	35	0.93123436979949
117	1298	35.1	-2.1019297020205
117	1299	35.2	-1.7117002563086
117	1300	35.3	-2.6985264358111
117	1301	35.4	-2.9125494712478
117	1302	35.5	-1.901609768917
117	1303	35.6	-2.7434382387435
117	1304	35.7	-2.3601037571026
117	1305	35.8	-1.8115961870834
117	1306	35.9	-2.316981113498
117	1307	36	-1.3290612877067
117	1308	36.1	2.6
117	1309	36.2	2.6
117	1310	36.3	2.6
117	1311	36.4	2.6
117	1312	36.5	2.6
117	1313	36.6	2.6
117	1314	36.7	2.6
117	1315	36.8	2.6
117	1316	36.9	1.3519108116674
117	1317	37	-0.54456015555188
117	1318	37.1	0.22743709289935
117	1319	37.2	-0.48087912858463
117	1320	37.3	-0.15465746584814
117	1321	37.4	0.36146979273762
117	1322	37.5	0.26421030855272
117	1323	37.6	-0.87188841970637
117	1324	37.7	0.72942050287966
117	1325	37.8	0.11517357639968
117	1326	37.9	-0.87722725647036
117	1327	38	0.92831809043419
117	1328	38.1	-0.48872657916509
117	1329	38.2	0.66099432960619
117	1330	38.3	-1.1200485720765
117	1331	38.4	0.94082805269863
117	1332	38.5	0.18441119829658
117	1333	38.6	-0.34040148423519
117	1366	38.7	-0.088416707888248
117	1367	38.8	0.54425559758674
117	1424	38.9	-0.15688515342772
117	1445	39	-0.05756971342489
117	1446	39.1	-0.54895555560943
117	1479	39.2	0.32484685096424
117	1480	39.3	-0.37929734424687
117	1481	39.4	-0.30117247512099
117	1482	39.5	0.76393229668029
117	1483	39.6	-0.68488905515988
117	1484	39.7	0.1114597722888
117	1485	39.8	-0.32599609633908
117	1486	39.9	-0.013173226406797
117	1487	40	1.2589213531464
117	1488	40.1	-0.52837841627188
117	1489	40.2	0.44317533618305
117	1490	40.3	-1.1214226250304
117	1491	40.4	0.55086265469435
117	1492	40.5	-0.25458349492401
117	1531	40.6	-0.19140402358025
117	1532	40.7	0.5287488328293
117	1553	40.8	-0.47035585658159
117	1562	40.9	0.98679384749849
117	1563	41	-0.024305567727421
117	1564	41.1	-0.29101009676233
117	1603	41.2	0.10428773693275
117	1604	41.3	-0.51177025679499
117	1605	41.4	-0.2252789154416
117	1606	41.5	0.12203715799842
117	1607	41.6	0.160608320334
117	1608	41.7	0.17603866751306
117	1609	41.8	-0.71254399472382
117	1610	41.9	0.31126028860454
117	1611	42	0.31162890663836
117	1644	42.1	0.30925596996676
117	1645	42.2	-0.82424965472892
117	1690	42.3	0.77152092542965
117	1691	42.4	-0.90180339091457
117	1692	42.5	1.1790809576632
117	1693	42.6	-0.32142834221013
117	1720	42.7	-0.059679292608052
117	1721	42.8	0.037204409111284
117	1722	42.9	0.34359927885235
117	1723	43	-0.8331221684115
117	1724	43.1	-0.082141274376779
117	1725	43.2	0.031226318283011
117	1726	43.3	0.30267287208699
117	1727	43.4	-0.39978397383821
117	1772	43.5	0.70094755289611
117	1799	43.6	-0.6014184814645
117	1800	43.7	0.76316164596937
117	1801	43.8	-0.41225280251819
117	1802	43.9	0.53893514650408
117	1803	44	-0.18673837431707
117	1804	44.1	-0.71938737547025
117	1805	44.2	0.086345687694847
117	1832	44.3	0.41163923810235
117	1833	44.4	-0.035934599395837
117	1834	44.5	-0.2454954771325
117	1835	44.6	0.46889987667091
117	1836	44.7	-0.057879358227364
117	1837	44.8	-0.66150325941853
117	1838	44.9	0.1891664220253
117	1839	45	0.4249968976248
117	1840	45.1	0.27193481542636
117	1841	45.2	-0.18108236419502
117	1842	45.3	0.31555993165821
117	1843	45.4	-0.6960564991692
117	1844	45.5	0.30778799878899
117	1845	45.6	0.20479759727605
117	1846	45.7	-0.34240634043235
117	1885	45.8	0.052298130001871
117	1886	45.9	-0.67041774934624
117	1887	46	1.0986259692581
117	1888	46.1	-0.65013142903335
117	1985	46.2	-0.4345765334554
117	1986	46.3	-0.12390822244342
117	1987	46.4	0.4134618268581
117	1988	46.5	-0.21591235925444
117	1989	46.6	-0.2113083466164
117	1990	46.7	-2.8573753149903
117	1991	46.8	-2.3110403749696
117	1992	46.9	-2.6712648747175
117	1993	47	-1.6107311043927
117	1994	47.1	-3.4770546036944
117	1995	47.2	-1.4298583494111
117	1996	47.3	-2.8936824122807
117	1997	47.4	-1.9604112946565
117	1998	47.5	-2.0452170948553
117	1999	47.6	2.6
117	2000	47.7	2.6
117	2001	47.8	2.6
117	2022	47.9	2.6
117	2031	48	2.6
117	2032	48.1	2.6
117	2033	48.2	2.6
117	2034	48.3	2.6
117	2035	48.4	1.7568106975004
117	2036	48.5	-0.42885458029341
117	2037	48.6	-0.78482489620801
117	2038	48.7	0.83253599198069
117	2039	48.8	0.14040688597597
117	2040	48.9	-0.40158368635457
117	2041	49	0.64006110287737
117	2042	49.1	-0.91599749012384
117	2043	49.2	0.53606803687289
117	2044	49.3	-0.42204434177838
117	2045	49.4	-0.44909824575297
117	2078	49.5	0.72918768397066
117	2111	49.6	0.43310916037298
117	2112	49.7	-0.039206258486955
117	2113	49.8	-0.80806374603417
117	2114	49.9	0.56136595164426
117	2115	50	-0.088051223498766
117	2116	50.1	-0.76846238381695
117	2117	50.2	0.81580788926222
117	2118	50.3	-0.4551715251524
117	2119	50.4	0.2767771622166
117	2164	50.5	-0.04872902773787
117	2165	50.6	0.61813496188261
117	2166	50.7	-0.59015668276698
117	2167	50.8	0.37993232780137
117	2168	50.9	-0.65356238670647
117	2213	51	0.58413940791506
117	2214	51.1	-0.72269055261277
117	2215	51.2	-0.21719827577471
117	2216	51.3	0.76182478934061
117	2217	51.4	0.26385068767704
117	2218	51.5	-0.98359814197756
117	2263	51.6	-0.093754743761387
117	2264	51.7	0.82222363001201
117	2303	51.8	-0.10263884554151
117	2368	51.9	-0.53133005227428
117	2369	52	0.25643773854244
117	2370	52.1	0.54183072226587
117	2371	52.2	-0.59751897146925
117	2372	52.3	0.58176282243803
117	2373	52.4	-0.73596762029919
117	2374	52.5	0.17909581558778
117	2375	52.6	0.32671259611379
117	2376	52.7	-0.70468603388871
117	2377	52.8	0.050267345644528
117	2378	52.9	0.044293117616325
117	2379	53	0.58886169341859
117	2380	53.1	-0.096995592466556
117	2381	53.2	0.23685425110161
117	2382	53.3	0.2170102065662
117	2383	53.4	0.21097444009501
117	2384	53.5	-0.38271646047942
117	2385	53.6	0.18247843286954
117	2386	53.7	-0.41183105176315
117	2425	53.8	0.23938491514419
117	2426	53.9	-0.62913757734933
117	2427	54	0.40067046980839
117	2428	54.1	0.043130524363368
117	2429	54.2	-0.15126657511573
117	2430	54.3	0.18736633327789
117	2431	54.4	0.4129321822431
117	2432	54.5	-0.43455341840163
117	2433	54.6	0.36624808732886
117	2434	54.7	-0.71360863684677
117	2435	54.8	0.87606801358052
117	2436	54.9	-1.1323267173022
117	2437	55	-0.13663210822269
117	2446	55.1	0.54867690643296
117	2447	55.2	0.17883279982488
117	2448	55.3	-0.22649221906904
117	2449	55.4	-0.0013341349316764
117	2450	55.5	-0.19707090142183
117	2451	55.6	-0.091976725216956
117	2484	55.7	0.81325716723223
117	2529	55.8	-0.43445870019496
117	2530	55.9	0.64809526181779
117	2531	56	-0.76926891540642
117	2532	56.1	-0.22836830315645
117	2533	56.2	1.047543354868
117	2534	56.3	-1.0610347568057
117	2535	56.4	0.78094266711268
117	2536	56.5	-0.74182598672341
117	2575	56.6	0.31663512126543
117	2658	56.7	-0.43450411609374
117	2659	56.8	0.11304063880816
117	2660	56.9	0.37066094141919
117	2661	57	-0.45358010085765
117	2662	57.1	-0.11816324745305
117	2663	57.2	0.053255876200273
117	2684	57.3	0.5551013065502
117	2685	57.4	-0.16418215862941
117	2712	57.5	-0.28327705916017
117	2713	57.6	0.38059254426043
117	2714	57.7	-0.58002839463297
117	2715	57.8	0.14675491543021
117	2716	57.9	-0.35955183773679
117	2717	58	-3.0635396981224
117	2718	58.1	-1.4446820715816
117	2719	58.2	-3.5894821525377
117	2720	58.3	-1.5008663314113
117	2721	58.4	-2.6884383456966
117	2722	58.5	-1.6893851878535
117	2723	58.6	-2.6912401313602
117	2724	58.7	-1.6771879037308
117	2725	58.8	-2.9491518850781
117	2726	58.9	2.6
117	2727	59	2.6
117	2728	59.1	2.6
117	2729	59.2	2.6
117	2730	59.3	2.6
117	2731	59.4	2.6
117	2732	59.5	2.6
117	2733	59.6	2.6
117	2734	59.7	1.9801542360904
117	2735	59.8	-0.24698248112109
117	2736	59.9	-0.055062381457534
117	2737	60	-0.052800986240626
117	2738	60.1	-0.54416771298274
117	2739	60.2	-0.18440583753399
117	2740	60.3	1.049363314244
117	2741	60.4	-0.54539530340117
117	2742	60.5	0.21022645072081
117	2743	60.6	0.33285190148744
117	2744	60.7	-0.54904837571084
117	2745	60.8	0.33784334836527
117	2798	60.9	-0.21685506801586
117	2799	61	0.31074533788487
117	2800	61.1	-0.8358269935241
117	2801	61.2	0.78418295283336
117	2896	61.3	-1.0344470484881
117	2897	61.4	0.5960469153244
118	582	19.3	1.4364634764686
118	609	19.4	1.6059710971865
118	610	19.5	1.7547348579245
118	611	19.6	1.7968275177048
118	612	19.7	1.9671609920518
118	613	19.8	1.9824976558494
118	614	19.9	2.1582278862782
118	615	20	2.190909097128
118	616	20.1	2.4478196406408
118	617	20.2	2.5061064452017
118	618	20.3	2.5162155175196
118	627	20.4	2.2350609797264
118	628	20.5	3.0156528064296
118	629	20.6	3.0177122745478
118	630	20.7	2.545112994391
118	631	20.8	2.897519036203
118	632	20.9	3.6484800652038
118	633	21	3.4712971622874
118	634	21.1	2.7970207843897
118	635	21.2	4.047324738128
118	636	21.3	3.4942037396198
118	637	21.4	3.3300376082446
118	638	21.5	3.7250944752231
118	639	21.6	4.0678597899484
118	640	21.7	3.804187803638
118	641	21.8	2.5730863286085
118	642	21.9	1.4725644684811
118	643	22	1.21383743408
118	644	22.1	1.8535749682783
118	645	22.2	0.973
118	646	22.3	1.3825905927713
118	647	22.4	2.0700140004611
118	648	22.5	0.973
118	649	22.6	1.8166324218903
118	650	22.7	0.973
118	651	22.8	0.973
118	652	22.9	2.2881034421482
118	653	23	0.973
118	654	23.1	2.455655704854
118	655	23.2	0.973
118	656	23.3	2.3685006312923
118	707	23.4	0.973
118	708	23.5	1.7412663559319
118	709	23.6	1.7488465308201
118	710	23.7	0.973
118	711	23.8	0.973
118	712	23.9	1.9922550216133
118	713	24	1.7943739251923
118	714	24.1	1.8137036529995
118	715	24.2	0.973
118	716	24.3	1.7671691044656
118	717	24.4	2.1080038899331
118	718	24.5	0.973
118	719	24.6	0.973
118	720	24.7	0.973
118	721	24.8	2.8830640052478
118	760	24.9	0.973
118	761	25	1.7440302281182
118	762	25.1	0.973
118	771	25.2	2.679892370528
118	772	25.3	0.973
118	773	25.4	0.973
118	774	25.5	0.973
118	775	25.6	2.7556504907263
118	776	25.7	0.973
118	777	25.8	2.4165504366438
118	778	25.9	0.973
118	779	26	1.5423023047104
118	780	26.1	2.1179546341075
118	781	26.2	0.973
118	782	26.3	2.2523350942872
118	783	26.4	0.973
118	784	26.5	1.2145429457838
118	785	26.6	2.6818588012579
118	794	26.7	0.973
118	795	26.8	2.337590400756
118	816	26.9	0.973
118	817	27	1.8613498858258
118	818	27.1	0.973
118	819	27.2	1.8563189513257
118	820	27.3	1.7506142992804
118	821	27.4	0.973
118	822	27.5	2.6300393269533
118	823	27.6	1.6398518520472
118	824	27.7	0.973
118	825	27.8	1.9082181426237
118	858	27.9	0.973
118	909	28	1.9801053801902
118	924	28.1	0.973
118	925	28.2	1.6571376603519
118	926	28.3	1.219048966472
118	927	28.4	1.6629033549343
118	928	28.5	2.0665321588378
118	929	28.6	0.973
118	930	28.7	0.973
118	931	28.8	2.4229016709874
118	932	28.9	1.6620806071289
118	933	29	0.973
118	934	29.1	0.973
118	935	29.2	2.2559425597088
118	936	29.3	0.973
118	993	29.4	1.7019625741307
118	994	29.5	0.973
118	995	29.6	1.7650042660208
118	996	29.7	0.973
118	1011	29.8	2.5117049790645
118	1012	29.9	0.973
118	1013	30	2.0856137527685
118	1014	30.1	1.395507942008
118	1015	30.2	0.973
118	1016	30.3	1.9436761524314
118	1017	30.4	0.973
118	1018	30.5	0.973
118	1019	30.6	1.840148308425
118	1020	30.7	0.973
118	1021	30.8	0.973
118	1022	30.9	1.5140958018952
118	1023	31	0.973
118	1024	31.1	2.9939352118058
118	1039	31.2	0.973
118	1040	31.3	1.5825103353776
118	1041	31.4	2.3447499112001
118	1042	31.5	0.973
118	1043	31.6	2.0314207963639
118	1044	31.7	2.0267155717885
118	1045	31.8	0.973
118	1046	31.9	1.4386909421163
118	1047	32	1.9897111468724
118	1048	32.1	1.5328333954106
118	1049	32.2	0.973
118	1050	32.3	2.0735560140416
118	1051	32.4	0.973
118	1052	32.5	1.4188169986673
118	1091	32.6	2.2926946015211
118	1092	32.7	0.973
118	1093	32.8	0.973
118	1114	32.9	1.6793399559263
118	1115	33	0.973
118	1148	33.1	1.3581045126483
118	1149	33.2	2.4942952287797
118	1150	33.3	1.8794721466704
118	1151	33.4	0.973
118	1152	33.5	1.2849066236345
118	1167	33.6	0.973
118	1168	33.7	1.8599707791966
118	1177	33.8	0.973
118	1178	33.9	1.3466188228537
118	1217	34	2.3286044406213
118	1218	34.1	1.4994028044606
118	1219	34.2	1.6620734007589
118	1276	34.3	0.973
118	1291	34.4	2.2978339402991
118	1292	34.5	1.2622860728417
118	1293	34.6	0.973
118	1294	34.7	1.9988974864695
118	1295	34.8	0.973
118	1296	34.9	0.973
118	1297	35	2.6344740703306
118	1298	35.1	0.973
118	1299	35.2	0.973
118	1300	35.3	0.973
118	1301	35.4	0.973
118	1302	35.5	0.973
118	1303	35.6	0.973
118	1304	35.7	0.973
118	1305	35.8	0.973
118	1306	35.9	0.973
118	1307	36	0.973
118	1308	36.1	3.5469965750431
118	1309	36.2	3.723460468914
118	1310	36.3	3.9000691728222
118	1311	36.4	4.0768324286749
118	1312	36.5	4.2537599783794
118	1313	36.6	4.4308615638427
118	1314	36.7	4.608146926972
118	1315	36.8	4.7856258096746
118	1316	36.9	3.2055988576227
118	1317	37	0.973
118	1318	37.1	1.6953108841817
118	1319	37.2	0.973
118	1320	37.3	0.973
118	1321	37.4	1.8699443823953
118	1322	37.5	1.7441858213948
118	1323	37.6	0.973
118	1324	37.7	2.3605708926392
118	1325	37.8	1.5454264755651
118	1326	37.9	0.973
118	1327	38	2.6294977150834
118	1328	38.1	0.973
118	1329	38.2	2.2769695016584
118	1330	38.3	0.973
118	1331	38.4	2.6459720793819
118	1332	38.5	1.6399233522571
118	1333	38.6	0.973
118	1366	38.7	1.2736537531761
118	1367	38.8	2.1231798066064
118	1424	38.9	0.973
118	1445	39	1.3159872254392
118	1446	39.1	0.973
118	1479	39.2	1.8233135618215
118	1480	39.3	0.973
118	1481	39.4	0.973
118	1482	39.5	2.4089304675544
118	1483	39.6	0.973
118	1484	39.7	1.5356025853792
118	1485	39.8	0.973
118	1486	39.9	1.3696116546035
118	1487	40	3.0803099524156
118	1488	40.1	0.973
118	1489	40.2	1.9862238713008
118	1490	40.3	0.973
118	1491	40.4	2.1194409561738
118	1492	40.5	0.973
118	1531	40.6	0.973
118	1532	40.7	2.0916921176596
118	1553	40.8	0.973
118	1562	40.9	2.7141285925521
118	1563	41	1.3610149469384
118	1564	41.1	0.973
118	1603	41.2	1.5314862186956
118	1604	41.3	0.973
118	1605	41.4	0.973
118	1606	41.5	1.5498557821556
118	1607	41.6	1.6022314340152
118	1608	41.7	1.6243752584453
118	1609	41.8	0.973
118	1610	41.9	1.7984451432502
118	1611	42	1.8030334585291
118	1644	42.1	1.8039482196541
118	1645	42.2	0.973
118	1690	42.3	2.4182372207983
118	1691	42.4	0.973
118	1692	42.5	2.9698926605247
118	1693	42.6	0.973
118	1720	42.7	1.3119988238512
118	1721	42.8	1.440891192152
118	1722	42.9	1.8528101639435
118	1723	43	0.973
118	1724	43.1	1.2802068816898
118	1725	43.2	1.4294831176485
118	1726	43.3	1.7905539966488
118	1727	43.4	0.973
118	1772	43.5	2.3242760985619
118	1799	43.6	0.973
118	1800	43.7	2.4109307245795
118	1801	43.8	0.973
118	1802	43.9	2.1141354850534
118	1803	44	0.973
118	1804	44.1	0.973
118	1805	44.2	1.5025660001247
118	1832	44.3	1.9375470491368
118	1833	44.4	1.3432643657964
118	1834	44.5	0.973
118	1835	44.6	2.016735922692
118	1836	44.7	1.3148608652252
118	1837	44.8	0.973
118	1838	44.9	1.6387339278831
118	1839	45	1.9565865049038
118	1840	45.1	1.7564326519332
118	1841	45.2	0.973
118	1842	45.3	1.8164993017229
118	1843	45.4	0.973
118	1844	45.5	1.8010082969042
118	1845	45.6	1.6662216796324
118	1846	45.7	0.973
118	1885	45.8	1.4606615198451
118	1886	45.9	0.973
118	1887	46	2.8637055242265
118	1888	46.1	0.973
118	1985	46.2	0.973
118	1986	46.3	1.2246193858572
118	1987	46.4	1.9344689236106
118	1988	46.5	0.973
118	1989	46.6	0.973
118	1990	46.7	0.973
118	1991	46.8	0.973
118	1992	46.9	0.973
118	1993	47	0.973
118	1994	47.1	0.973
118	1995	47.2	0.973
118	1996	47.3	0.973
118	1997	47.4	0.973
118	1998	47.5	0.973
118	1999	47.6	3.519528126547
118	2000	47.7	3.6959703457335
118	2001	47.8	3.8725558578431
118	2022	47.9	4.0492944047829
118	2031	48	4.2261957284602
118	2032	48.1	4.403269570782
118	2033	48.2	4.5805256736557
118	2034	48.3	4.7579737789883
118	2035	48.4	3.7481485086436
118	2036	48.5	0.973
118	2037	48.6	0.973
118	2038	48.7	2.4998471270469
118	2039	48.8	1.5800507837261
118	2040	48.9	0.973
118	2041	49	2.2517010391597
118	2042	49.1	0.973
118	2043	49.2	2.1052957219901
118	2044	49.3	0.973
118	2045	49.4	0.973
118	2078	49.5	2.3589904816534
118	2111	49.6	1.9729741723967
118	2112	49.7	1.3409410882676
118	2113	49.8	0.973
118	2114	49.9	2.1390616965663
118	2115	50	1.2744558951219
118	2116	50.1	0.973
118	2117	50.2	2.4766612542624
118	2118	50.3	0.973
118	2119	50.4	1.7576065206294
118	2164	50.5	1.3258983251116
118	2165	50.6	2.2218205414927
118	2166	50.7	0.973
118	2167	50.8	1.8996731620242
118	2168	50.9	0.973
118	2213	51	2.1707657020293
118	2214	51.1	0.973
118	2215	51.2	0.973
118	2216	51.3	2.4032668245915
118	2217	51.4	1.7449879266122
118	2218	51.5	0.973
118	2263	51.6	1.2640503497726
118	2264	51.7	2.483716074199
118	2303	51.8	1.254711072502
118	2368	51.9	0.973
118	2369	52	1.7276007645873
118	2370	52.1	2.1142915976635
118	2371	52.2	0.973
118	2372	52.3	2.167189148023
118	2373	52.4	0.973
118	2374	52.5	1.6252488489434
118	2375	52.6	1.8243259371592
118	2376	52.7	0.973
118	2377	52.8	1.4531201877652
118	2378	52.9	1.4455867064112
118	2379	53	2.1716525332948
118	2380	53.1	1.2618709543426
118	2381	53.2	1.7064749511136
118	2382	53.3	1.6824600294981
118	2383	53.4	1.6766750137461
118	2384	53.5	0.973
118	2385	53.6	1.6364814158393
118	2386	53.7	0.973
118	2425	53.8	1.710471674741
118	2426	53.9	0.973
118	2427	54	1.9215973321609
118	2428	54.1	1.4480689634925
118	2429	54.2	0.973
118	2430	54.3	1.6397298732976
118	2431	54.4	1.9455348938096
118	2432	54.5	0.973
118	2433	54.6	1.8821240848321
118	2434	54.7	0.973
118	2435	54.8	2.567305475945
118	2436	54.9	0.973
118	2437	55	0.973
118	2446	55.1	2.1152080618392
118	2447	55.2	1.6280620826262
118	2448	55.3	0.973
118	2449	55.4	1.3878251315383
118	2450	55.5	0.973
118	2451	55.6	1.2671108573645
118	2484	55.7	2.4769858388083
118	2529	55.8	0.973
118	2530	55.9	2.2613017730397
118	2531	56	0.973
118	2532	56.1	0.973
118	2533	56.2	2.7975416332092
118	2534	56.3	0.973
118	2535	56.4	2.4334910652699
118	2536	56.5	0.973
118	2575	56.6	1.8088967522765
118	2658	56.7	0.973
118	2659	56.8	1.5368899561482
118	2660	56.9	1.881079678703
118	2661	57	0.973
118	2662	57.1	1.2322834318502
118	2663	57.2	1.4572457279975
118	2684	57.3	2.125971979505
118	2685	57.4	0.973
118	2712	57.5	0.973
118	2713	57.6	1.8937801973776
118	2714	57.7	0.973
118	2715	57.8	1.5803728636589
118	2716	57.9	0.973
118	2717	58	0.973
118	2718	58.1	0.973
118	2719	58.2	0.973
118	2720	58.3	0.973
118	2721	58.4	0.973
118	2722	58.5	0.973
118	2723	58.6	0.973
118	2724	58.7	0.973
118	2725	58.8	0.973
118	2726	58.9	3.5043778670728
118	2727	59	3.6808082315667
118	2728	59.1	3.8573810521406
118	2729	59.2	4.0341060707016
118	2730	59.3	4.2109930291571
118	2731	59.4	4.388051669414
118	2732	59.5	4.5652917333796
118	2733	59.6	4.7427229629611
118	2734	59.7	4.0474199166126
118	2735	59.8	0.973
118	2736	59.9	1.3189974404891
118	2737	60	1.3217789325101
118	2738	60.1	0.973
118	2739	60.2	0.973
118	2740	60.3	2.7991426007762
118	2741	60.4	0.973
118	2742	60.5	1.6718214480164
118	2743	60.6	1.8396023006465
118	2744	60.7	0.973
118	2745	60.8	1.8433677519507
118	2798	60.9	0.973
118	2799	61	1.8084551121205
118	2800	61.1	0.973
118	2801	61.2	2.4398199230662
118	2896	61.3	0.973
118	2897	61.4	2.1798739284331
